geometry optimzed in LAMMPS
_audit_creation_date              2020-11-30 
_audit_creation_method            'lammps2cif' 
_symmetry_space_group_name_H-M    'P1' 
_symmetry_Int_Tables_number       1 
_symmetry_cell_setting            triclinic 
loop_ 
_symmetry_equiv_pos_as_xyz 
  x,y,z 
_cell_length_a                    38.81840764 
_cell_length_b                    38.637947404382246 
_cell_length_c                    102.38038180544824 
_cell_angle_alpha                 89.99413404918562 
_cell_angle_beta                  89.94000068025062 
_cell_angle_gamma                 120.64654309300407 
loop_ 
_atom_site_label 
_atom_site_type_symbol 
_atom_site_fract_x 
_atom_site_fract_y 
_atom_site_fract_z 
_atom_site_charge 
C1          C  0.15206519  0.83457278  0.91581536     0.88100
C2          C  0.12456070  0.79371178  0.92239225    -0.52100
C3          C  0.14284432  0.77261549  0.92571981     0.11100
C4          C  0.18726327  0.79398939  0.92169636     0.22000
C5          C  0.18786515  0.85662134  0.92534431    -0.52800
C6          C  0.20613807  0.83523486  0.92842123     0.11200
C7          C  0.17055585  0.82500919  0.90408239    -0.52300
C8          C  0.18829891  0.80345568  0.90707546     0.11700
H9          H  0.09321554  0.78287076  0.92440991     0.16300
H10         H  0.20234515  0.77702148  0.92417638     0.02000
H11         H  0.19985503  0.88690612  0.92890965     0.16600
H12         H  0.16942778  0.83424984  0.89414234     0.16400
C13         C  0.64870629  0.84027472  0.91643106     0.88100
C14         C  0.63582043  0.86666810  0.92384086    -0.52100
C15         C  0.59596321  0.84729904  0.92680982     0.11100
C16         C  0.57237542  0.80335805  0.92234608     0.22000
C17         C  0.63453576  0.80349918  0.92559289    -0.52800
C18         C  0.59455458  0.78411515  0.92865226     0.11200
C19         C  0.62051272  0.82374154  0.90465621    -0.52300
C20         C  0.58082044  0.80450539  0.90764611     0.11700
H21         H  0.65645803  0.89749897  0.92678388     0.16300
H22         H  0.54009384  0.78830857  0.92488008     0.02000
H23         H  0.65372076  0.79395327  0.92985717     0.16600
H24         H  0.63129446  0.82751328  0.89465636     0.16400
C25         C  0.15407454  0.35044257  0.91587130     0.88100
C26         C  0.19402213  0.36509935  0.92313372    -0.52100
C27         C  0.21324929  0.40478900  0.92661309     0.11100
C28         C  0.19135269  0.42668372  0.92253631     0.22000
C29         C  0.13001225  0.36200424  0.92522824    -0.52800
C30         C  0.14962462  0.40181874  0.92862611     0.11200
C31         C  0.16478157  0.37985752  0.90437768    -0.52300
C32         C  0.18436340  0.41945057  0.90781452     0.11700
H33         H  0.20556637  0.34554787  0.92557992     0.16300
H34         H  0.20734180  0.45894760  0.92536599     0.02000
H35         H  0.10041120  0.34210995  0.92900094     0.16600
H36         H  0.15784735  0.37010851  0.89427685     0.16400
Fe37       Fe  0.34563242  0.64436802  0.81017809     1.65800
Fe38       Fe  0.35433676  0.73675031  0.80951988     1.73200
Fe39       Fe  0.26204747  0.65193419  0.80959860     1.54400
O40         O  0.25382506  0.60594802  0.79723465    -0.80000
O41         O  0.32373055  0.74243749  0.82501162    -0.78300
O42         O  0.31232566  0.60931951  0.79457447    -0.82500
O43         O  0.30513562  0.60444791  0.82366863    -0.77400
O44         O  0.26266460  0.68367895  0.79338578    -0.79100
O45         O  0.39390696  0.73820521  0.82337955    -0.81900
C46         C  0.27502043  0.60113958  0.82971639     0.98900
C47         C  0.27564836  0.59454505  0.79170669     1.06300
O48         O  0.32075195  0.67772612  0.80963367    -1.10900
O49         O  0.38935246  0.73697633  0.79429005    -0.73300
O50         O  0.39012901  0.68026288  0.79704268    -0.76800
O51         O  0.25680329  0.61878232  0.82594437    -0.77500
C52         C  0.40263865  0.71392733  0.79143936     0.97800
O53         O  0.38077277  0.67552940  0.82593362    -0.75400
O54         O  0.31851521  0.74316015  0.79580254    -0.80600
C55         C  0.28712339  0.72403418  0.82824634     1.00400
C56         C  0.28548555  0.72011684  0.79005624     1.06300
O57         O  0.26079001  0.69327280  0.82216441    -0.76300
C58         C  0.39811625  0.71202235  0.82950910     1.04600
C59         C  0.48601190  0.97628448  0.98549900     0.03900
C60         C  0.44765393  0.97177594  0.98661036     0.03900
C61         C  0.44085722  0.99345989  0.99627108    -0.16600
C62         C  0.47119527  0.01944993  0.00494274     0.03900
C63         C  0.50944165  0.02339283  0.00393407     0.03900
C64         C  0.51610578  0.00162810  0.99428735    -0.16600
H65         H  0.54527581  0.00433417  0.99364565     0.06000
H66         H  0.41172166  0.99084672  0.99679799     0.06000
C67         C  0.32240528  0.17137721  0.07228845     0.88100
C68         C  0.33577126  0.20936617  0.06400723    -0.52100
C69         C  0.37574301  0.23053199  0.06105697     0.11100
C70         C  0.39920906  0.21173779  0.06680021     0.22000
C71         C  0.33715018  0.14703893  0.06453030    -0.52800
C72         C  0.37713680  0.16824355  0.06166046     0.11200
C73         C  0.34995446  0.18586807  0.08426009    -0.52300
C74         C  0.38987993  0.20762589  0.08155401     0.11700
H75         H  0.31514694  0.21889226  0.06088609     0.16300
H76         H  0.43163575  0.22857719  0.06440507     0.02000
H77         H  0.31916273  0.11597051  0.06161010     0.16600
H78         H  0.33851244  0.17926205  0.09419748     0.16400
C79         C  0.81057182  0.66726852  0.07173808     0.88100
C80         C  0.83678094  0.65410479  0.06440404    -0.52100
C81         C  0.81790511  0.61380561  0.06166664     0.11100
C82         C  0.77387902  0.59043724  0.06615062     0.22000
C83         C  0.77432916  0.65302114  0.06252467    -0.52800
C84         C  0.75478785  0.61269572  0.05977952     0.11200
C85         C  0.79418543  0.63942046  0.08361432    -0.52300
C86         C  0.77510659  0.59954817  0.08075022     0.11700
H87         H  0.86700186  0.67494630  0.06108845     0.16300
H88         H  0.75806286  0.55772808  0.06400128     0.02000
H89         H  0.76486113  0.67267576  0.05839954     0.16600
H90         H  0.79782589  0.65049430  0.09357494     0.16400
C91         C  0.80788193  0.17252617  0.07420598     0.88100
C92         C  0.77161076  0.14845949  0.06504476    -0.52100
C93         C  0.75316021  0.16899493  0.06121474     0.11100
C94         C  0.77222717  0.21159385  0.06699198     0.22000
C95         C  0.83499221  0.21194853  0.06683729    -0.52800
C96         C  0.81663039  0.23245205  0.06290842     0.11200
C97         C  0.79004625  0.18456026  0.08553676    -0.52300
C98         C  0.77193706  0.20526085  0.08182277     0.11700
H99         H  0.75914745  0.11733641  0.06234969     0.16300
H100        H  0.75691011  0.22786078  0.06393770     0.02000
H101        H  0.86649946  0.22287905  0.06511464     0.16600
H102        H  0.79197950  0.17770878  0.09570884     0.16400
Fe103      Fe  0.70906285  0.37127190  0.17868655     1.65800
Fe104      Fe  0.62100816  0.37097605  0.17948967     1.73200
Fe105      Fe  0.61967350  0.28175356  0.18040748     1.54400
O106        O  0.65373959  0.27614718  0.16585060    -0.80000
O107        O  0.58506162  0.33927033  0.19508155    -0.78300
O108        O  0.70849440  0.33654373  0.16324126    -0.82500
O109        O  0.71486224  0.33493971  0.19227276    -0.77400
O110        O  0.58079853  0.27645381  0.16564916    -0.79100
O111        O  0.66004638  0.41391492  0.19255757    -0.81900
C112        C  0.69240750  0.30122340  0.19774445     0.98900
C113        C  0.68550157  0.30035185  0.15970481     1.06300
O114        O  0.64992393  0.34129970  0.17967182    -1.10900
O115        O  0.65252389  0.40520764  0.16367053    -0.73300
O116        O  0.71244702  0.41131938  0.16467444    -0.76800
O117        O  0.65552117  0.27947878  0.19493596    -0.77500
C118        C  0.68764923  0.41891731  0.15930973     0.97800
O119        O  0.71529925  0.41011995  0.19378079    -0.75400
O120        O  0.57899898  0.33290271  0.16613212    -0.80600
C121        C  0.57091240  0.30385874  0.19948882     1.00400
C122        C  0.56819807  0.29870544  0.16125461     1.06300
O123        O  0.58104773  0.27970138  0.19490491    -0.76300
C124        C  0.69441171  0.42533848  0.19733900     1.04600
C125        C  0.02154894  0.50644207  0.99039298     0.03900
C126        C  0.01879562  0.54135825  0.98929618     0.03900
C127        C  0.99582128  0.54802267  0.99842568    -0.16600
C128        C  0.97308158  0.51951648  0.00809918     0.03900
C129        C  0.97521068  0.48402799  0.00900113     0.03900
C130        C  0.00023155  0.47858035  0.00034624    -0.16600
H131        H  0.00151443  0.45122453  0.00093192     0.06000
H132        H  0.99495161  0.57557868  0.99775739     0.06000
C133        C  0.48562209  0.54183547  0.98778927     0.03900
C134        C  0.45041361  0.50367740  0.98647939     0.03900
C135        C  0.44432223  0.47224363  0.99491699    -0.16600
C136        C  0.47253289  0.47757408  0.00449111     0.03900
C137        C  0.50788651  0.51552446  0.00566580     0.03900
C138        C  0.51372267  0.54715413  0.99740561    -0.16600
H139        H  0.54121316  0.57601699  0.99818856     0.06000
H140        H  0.41700508  0.44324895  0.99409487     0.06000
C141        C  0.98578521  0.50983906  0.40610689     0.88100
C142        C  0.00017803  0.54922942  0.39851528    -0.52100
C143        C  0.04020581  0.56996900  0.39559435     0.11100
C144        C  0.06247120  0.54890479  0.40052539     0.22000
C145        C  0.99919417  0.48584674  0.39749275    -0.52800
C146        C  0.03919655  0.50638501  0.39458548     0.11200
C147        C  0.01359446  0.52166525  0.41802112    -0.52300
C148        C  0.05356405  0.54284421  0.41528992     0.11700
H149        H  0.97984846  0.55920754  0.39548352     0.16300
H150        H  0.09491329  0.56546576  0.39823670     0.02000
H151        H  0.98029885  0.45544428  0.39405474     0.16600
H152        H  0.00217051  0.51372270  0.42792768     0.16400
C153        C  0.48655084  0.51269027  0.40614707     0.88100
C154        C  0.44811680  0.48736265  0.39815363    -0.52100
C155        C  0.42805040  0.50677011  0.39492010     0.11100
C156        C  0.44833950  0.55025070  0.40009567     0.22000
C157        C  0.51148797  0.55133583  0.39788163    -0.52800
C158        C  0.49119732  0.57058169  0.39470938     0.11200
C159        C  0.47339079  0.52774624  0.41791090    -0.52300
C160        C  0.45303261  0.54666335  0.41485147     0.11700
H161        H  0.43743681  0.45630708  0.39549346     0.16300
H162        H  0.43251127  0.56650181  0.39755978     0.02000
H163        H  0.54225606  0.56377183  0.39489611     0.16600
H164        H  0.47941177  0.52344652  0.42796527     0.16400
C165        C  0.48488152  0.00538054  0.40532233     0.88100
C166        C  0.51079932  0.99229170  0.39785685    -0.52100
C167        C  0.49204764  0.95195051  0.39508289     0.11100
C168        C  0.44824225  0.92828893  0.39996827     0.22000
C169        C  0.44732091  0.99022355  0.39664551    -0.52800
C170        C  0.42840063  0.95005093  0.39369389     0.11200
C171        C  0.46924611  0.97774623  0.41729053    -0.52300
C172        C  0.45011891  0.93773402  0.41462593     0.11700
H173        H  0.54107710  0.01372879  0.39472231     0.16300
H174        H  0.43255370  0.89555553  0.39798128     0.02000
H175        H  0.43530844  0.00818412  0.39313739     0.16600
H176        H  0.47310439  0.98916249  0.42721022     0.16400
Fe177      Fe  0.28961818  0.70276534  0.51276584     1.65800
Fe178      Fe  0.38004535  0.70698117  0.51241026     1.73200
Fe179      Fe  0.29239317  0.61575214  0.51189639     1.54400
O180        O  0.25019512  0.60836015  0.52568898    -0.80000
O181        O  0.38499126  0.67515955  0.49706238    -0.78300
O182        O  0.25198628  0.66659281  0.52744141    -0.82500
O183        O  0.25048264  0.66661178  0.49831934    -0.77400
O184        O  0.32645442  0.61247074  0.52687623    -0.79100
O185        O  0.38278550  0.74749606  0.49853715    -0.81900
C186        C  0.24183957  0.63382936  0.49272454     0.98900
C187        C  0.23828368  0.63030229  0.53084780     1.06300
O188        O  0.32072583  0.67518019  0.51244432    -1.10900
O189        O  0.38260369  0.74345569  0.52762801    -0.73300
O190        O  0.32509518  0.74312077  0.52707709    -0.76800
O191        O  0.25567976  0.61213250  0.49664257    -0.77500
C192        C  0.35972567  0.75557729  0.53179741     0.97800
O193        O  0.32286482  0.74173822  0.49797301    -0.75400
O194        O  0.38509185  0.66988612  0.52604300    -0.80600
C195        C  0.36340661  0.63958779  0.49282380     1.00400
C196        C  0.36232855  0.63487981  0.53072562     1.06300
O197        O  0.32998533  0.61472506  0.49791769    -0.76300
C198        C  0.35817702  0.75630542  0.49362226     1.04600
C199        C  0.31109765  0.17671025  0.24875219     0.88100
C200        C  0.29674848  0.20216935  0.25602573    -0.52100
C201        C  0.25697155  0.18171326  0.25940963     0.11100
C202        C  0.23455263  0.13770891  0.25459578     0.22000
C203        C  0.29780540  0.13966738  0.25749534    -0.52800
C204        C  0.25795918  0.11921163  0.26061131     0.11200
C205        C  0.28313104  0.16100565  0.23685886    -0.52300
C206        C  0.24342651  0.14052725  0.23982477     0.11700
H207        H  0.31511457  0.23401724  0.25787094     0.16300
H208        H  0.20221462  0.12075788  0.25706262     0.02000
H209        H  0.31836399  0.13037195  0.26089544     0.16600
H210        H  0.29382054  0.16603961  0.22683083     0.16400
C211        C  0.82163600  0.68330264  0.24956993     0.88100
C212        C  0.86066322  0.69645479  0.25713175    -0.52100
C213        C  0.88150190  0.73627974  0.26055736     0.11100
C214        C  0.86153878  0.75978280  0.25587450     0.22000
C215        C  0.79817425  0.69676220  0.25842819    -0.52800
C216        C  0.81917522  0.73673140  0.26171449     0.11200
C217        C  0.83412221  0.71227667  0.23791323    -0.52300
C218        C  0.85511950  0.75185431  0.24114208     0.11700
H219        H  0.87074710  0.67570757  0.25958362     0.16300
H220        H  0.87826896  0.79214474  0.25851599     0.02000
H221        H  0.76757638  0.67810073  0.26158785     0.16600
H222        H  0.82705258  0.70227204  0.22783695     0.16400
C223        C  0.82749060  0.17805275  0.24825311     0.88100
C224        C  0.80186977  0.14039552  0.25670170    -0.52100
C225        C  0.82044979  0.11953906  0.25998498     0.11100
C226        C  0.86300999  0.13801296  0.25448363     0.22000
C227        C  0.86663125  0.20269343  0.25620292    -0.52800
C228        C  0.88467485  0.18137174  0.25946173     0.11200
C229        C  0.84079865  0.16284921  0.23654768    -0.52300
C230        C  0.85859823  0.14139111  0.23972044     0.11700
H231        H  0.77155080  0.13105729  0.25975304     0.16300
H232        H  0.87830639  0.12138421  0.25720907     0.02000
H233        H  0.87981383  0.23362370  0.25922161     0.16600
H234        H  0.83638834  0.16865502  0.22648253     0.16400
Fe235      Fe  0.00975435  0.97653712  0.14211717     1.65800
Fe236      Fe  0.01490406  0.06721518  0.14181491     1.73200
Fe237      Fe  0.92453157  0.98041525  0.14287842     1.54400
O238        O  0.91641285  0.93378467  0.13076371    -0.80000
O239        O  0.98621994  0.07143310  0.15816651    -0.78300
O240        O  0.97625518  0.94157498  0.12648480    -0.82500
O241        O  0.97019287  0.93416054  0.15548404    -0.77400
O242        O  0.92162501  0.01067289  0.12678570    -0.79100
O243        O  0.05837604  0.07080175  0.15450913    -0.81900
C244        C  0.94104170  0.93082274  0.16217843     0.98900
C245        C  0.93866955  0.92397192  0.12464888     1.06300
O246        O  0.98311776  0.00809665  0.14208979    -1.10900
O247        O  0.04751440  0.06835386  0.12570309    -0.73300
O248        O  0.05359711  0.01480875  0.12895357    -0.76800
O249        O  0.92280132  0.94913125  0.15926923    -0.77500
C250        C  0.06345714  0.04752582  0.12301037     0.97800
O251        O  0.04451763  0.00808141  0.15794109    -0.75400
O252        O  0.97521257  0.07188292  0.12926703    -0.80600
C253        C  0.94979766  0.05202402  0.16164353     1.00400
C254        C  0.94187719  0.04776076  0.12384747     1.06300
O255        O  0.92353211  0.02167689  0.15539490    -0.76300
C256        C  0.06275295  0.04513809  0.16092469     1.04600
C257        C  0.14518401  0.36722386  0.33818364     0.03900
C258        C  0.18235700  0.36875923  0.33762046     0.03900
C259        C  0.18788544  0.34551731  0.32816802    -0.16600
C260        C  0.15761379  0.32099978  0.31922173     0.03900
C261        C  0.12075079  0.32019094  0.31970621     0.03900
C262        C  0.11508443  0.34305262  0.32922094    -0.16600
H263        H  0.08670755  0.34216988  0.32962125     0.06000
H264        H  0.21626937  0.34643376  0.32780007     0.06000
C265        C  0.63554787  0.85269726  0.33762118     0.03900
C266        C  0.63643783  0.81650468  0.33754693     0.03900
C267        C  0.66120559  0.81221260  0.32847153    -0.16600
C268        C  0.68465967  0.84262082  0.31945693     0.03900
C269        C  0.68355878  0.87857197  0.31943171     0.03900
C270        C  0.65944475  0.88322516  0.32865956    -0.16600
H271        H  0.65923631  0.91118146  0.32886232     0.06000
H272        H  0.66174766  0.78442979  0.32825344     0.06000
C273        C  0.14405370  0.81722250  0.33852222     0.03900
C274        C  0.18181621  0.85327811  0.33817191     0.03900
C275        C  0.18847955  0.88279827  0.32881610    -0.16600
C276        C  0.15879917  0.87763608  0.31983673     0.03900
C277        C  0.12087949  0.84190010  0.32037361     0.03900
C278        C  0.11414316  0.81251911  0.32973784    -0.16600
H279        H  0.08514929  0.78500535  0.33003627     0.06000
H280        H  0.21745366  0.91032962  0.32848371     0.06000
C281        C  0.65998346  0.83421564  0.74038735     0.88100
C282        C  0.67013048  0.87176245  0.73228090    -0.52100
C283        C  0.70924979  0.89409565  0.72843198     0.11100
C284        C  0.73507984  0.87674940  0.73308106     0.22000
C285        C  0.67419375  0.81081753  0.73186210    -0.52800
C286        C  0.71328841  0.83326455  0.72805191     0.11200
C287        C  0.69019796  0.84995803  0.75169655    -0.52300
C288        C  0.72928732  0.87287523  0.74798028     0.11700
H289        H  0.64814305  0.88037121  0.73009011     0.16300
H290        H  0.76680792  0.89440526  0.72988852     0.02000
H291        H  0.65665957  0.77952747  0.72914518     0.16600
H292        H  0.68121735  0.84374206  0.76188259     0.16400
C293        C  0.14139254  0.33874454  0.73938702     0.88100
C294        C  0.16692960  0.32720843  0.73091222    -0.52100
C295        C  0.14890364  0.28705666  0.72792549     0.11100
C296        C  0.10659850  0.26192505  0.73379215     0.22000
C297        C  0.10181918  0.32215627  0.73169884    -0.52800
C298        C  0.08391609  0.28215114  0.72884496     0.11200
C299        C  0.12943978  0.31094029  0.75133394    -0.52300
C300        C  0.11195021  0.27101192  0.74852127     0.11700
H301        H  0.19714274  0.34910657  0.72784282     0.16300
H302        H  0.09118499  0.22944905  0.73136379     0.02000
H303        H  0.08802506  0.33889671  0.72858036     0.16600
H304        H  0.13453561  0.32219857  0.76129275     0.16400
C305        C  0.15382566  0.84203447  0.73940958     0.88100
C306        C  0.11501646  0.81563358  0.73173610    -0.52100
C307        C  0.09269850  0.83319768  0.72957401     0.11100
C308        C  0.11102325  0.87592611  0.73522130     0.22000
C309        C  0.17533967  0.88122766  0.73126809    -0.52800
C310        C  0.15333735  0.89943005  0.72924288     0.11200
C311        C  0.14062819  0.85446652  0.75185505    -0.52300
C312        C  0.11830361  0.87201177  0.74973517     0.11700
H313        H  0.10645210  0.78597627  0.72802319     0.16300
H314        H  0.09263144  0.89000743  0.73361776     0.02000
H315        H  0.20448004  0.89364539  0.72690274     0.16600
H316        H  0.14845150  0.84971669  0.76161061     0.16400
Fe317      Fe  0.95991735  0.03668143  0.84535904     1.65800
Fe318      Fe  0.04794017  0.03654938  0.84641821     1.73200
Fe319      Fe  0.95829421  0.94722401  0.84574413     1.54400
O320        O  0.91519212  0.94248117  0.85867518    -0.80000
O321        O  0.05203282  0.00188894  0.83188492    -0.78300
O322        O  0.91951343  0.00210718  0.85971762    -0.82500
O323        O  0.92228066  0.00125747  0.83057498    -0.77400
O324        O  0.98996816  0.94326969  0.86142436    -0.79100
O325        O  0.05366086  0.07568441  0.83155135    -0.81900
C326        C  0.91344613  0.96817989  0.82518401     0.98900
C327        C  0.90376713  0.96559514  0.86317732     1.06300
O328        O  0.98873596  0.00683206  0.84600135    -1.10900
O329        O  0.05181786  0.07639682  0.86075321    -0.73300
O330        O  0.99506257  0.07741978  0.85961831    -0.76800
O331        O  0.92457339  0.94496806  0.82980770    -0.77500
C332        C  0.02979991  0.09025369  0.86430985     0.97800
O333        O  0.99572817  0.07403182  0.83076295    -0.75400
O334        O  0.04928509  0.00002487  0.86104954    -0.80600
C335        C  0.02967661  0.96654257  0.82758731     1.00400
C336        C  0.02535342  0.96537414  0.86578456     1.06300
O337        O  0.99561626  0.94273126  0.83244768    -0.76300
C338        C  0.03052576  0.08601784  0.82637916     1.04600
C339        C  0.47890419  0.00894237  0.58482577     0.88100
C340        C  0.51571541  0.02245588  0.59379663    -0.52100
C341        C  0.53593130  0.06258539  0.59678152     0.11100
C342        C  0.51797782  0.08594445  0.59042724     0.22000
C343        C  0.45354637  0.02355555  0.59185319    -0.52800
C344        C  0.47392692  0.06363816  0.59481173     0.11200
C345        C  0.49664244  0.03685210  0.57292925    -0.52300
C346        C  0.51670081  0.07694557  0.57572454     0.11700
H347        H  0.52702385  0.00365387  0.59712278     0.16300
H348        H  0.53427858  0.11847994  0.59287445     0.02000
H349        H  0.42232271  0.00372654  0.59445748     0.16600
H350        H  0.49266852  0.02560576  0.56299077     0.16400
C351        C  0.98299300  0.50077205  0.58331389     0.88100
C352        C  0.97135924  0.52618633  0.59183133    -0.52100
C353        C  0.93134308  0.50787090  0.59468463     0.11100
C354        C  0.90641173  0.46547521  0.58881798     0.22000
C355        C  0.96640353  0.46074070  0.59092284    -0.52800
C356        C  0.92657527  0.44269708  0.59383852     0.11200
C357        C  0.95548446  0.48893490  0.57133319    -0.52300
C358        C  0.91573280  0.47107881  0.57410588     0.11700
H359        H  0.99294979  0.55636553  0.59511081     0.16300
H360        H  0.87400469  0.45026907  0.59119932     0.02000
H361        H  0.98317337  0.44697751  0.59403794     0.16600
H362        H  0.96672283  0.49412580  0.56136797     0.16400
C363        C  0.48813795  0.51017911  0.58541988     0.88100
C364        C  0.46348364  0.47217694  0.59385024    -0.52100
C365        C  0.48218763  0.45088063  0.59636003     0.11100
C366        C  0.52423611  0.46967883  0.59026580     0.22000
C367        C  0.52796714  0.53424210  0.59305632    -0.52800
C368        C  0.54659042  0.51293161  0.59552574     0.11200
C369        C  0.49991852  0.49540773  0.57324489    -0.52300
C370        C  0.51815781  0.47389681  0.57562507     0.11700
H371        H  0.43363026  0.46281076  0.59742245     0.16300
H372        H  0.53964323  0.45273616  0.59238687     0.02000
H373        H  0.54082883  0.56460801  0.59662856     0.16600
H374        H  0.49437098  0.50188998  0.56339630     0.16400
Fe375      Fe  0.67749572  0.31153160  0.47772472     1.65800
Fe376      Fe  0.58906934  0.31135529  0.47798054     1.73200
Fe377      Fe  0.67842434  0.40065765  0.47789275     1.54400
O378        O  0.71779120  0.40435179  0.49216852    -0.80000
O379        O  0.58547535  0.34502436  0.46287381    -0.78300
O380        O  0.71551953  0.34574758  0.49253994    -0.82500
O381        O  0.71799967  0.34792241  0.46352962    -0.77400
O382        O  0.64465496  0.40427101  0.49290676    -0.79100
O383        O  0.58377980  0.26943545  0.46428982    -0.81900
C384        C  0.73026218  0.38291888  0.45897037     0.98900
C385        C  0.72814823  0.38077650  0.49700787     1.06300
O386        O  0.64834989  0.34119885  0.47775754    -1.10900
O387        O  0.58611383  0.27527741  0.49331399    -0.73300
O388        O  0.64161552  0.27213368  0.49218168    -0.76800
O389        O  0.71686716  0.40488860  0.46306373    -0.77500
C390        C  0.60848623  0.26273314  0.49757070     0.97800
O391        O  0.64265299  0.27289213  0.46303254    -0.75400
O392        O  0.58549823  0.34810951  0.49189100    -0.80600
C393        C  0.60760136  0.38110966  0.45901280     1.00400
C394        C  0.60915224  0.38194536  0.49703474     1.06300
O395        O  0.64207231  0.40435651  0.46383751    -0.76300
C396        C  0.60660074  0.25823492  0.45940272     1.04600
C397        C  0.82117584  0.70438826  0.66797385     0.03900
C398        C  0.85623566  0.70195342  0.66862702     0.03900
C399        C  0.86101513  0.67677167  0.65986490    -0.16600
C400        C  0.83165039  0.65371569  0.65051876     0.03900
C401        C  0.79693825  0.65680131  0.64968819     0.03900
C402        C  0.79235056  0.68225914  0.65840422    -0.16600
H403        H  0.76517297  0.68370308  0.65806767     0.06000
H404        H  0.88780929  0.67469022  0.66044743     0.06000
C405        C  0.29313982  0.18379502  0.67232460     0.03900
C406        C  0.28937937  0.14535279  0.67190439     0.03900
C407        C  0.31137591  0.13796064  0.66249081    -0.16600
C408        C  0.33626953  0.16722642  0.65330053     0.03900
C409        C  0.34021386  0.20570379  0.65386934     0.03900
C410        C  0.31879239  0.21336849  0.66336977    -0.16600
H411        H  0.32138355  0.24266991  0.66357208     0.06000
H412        H  0.30936132  0.10892869  0.66239487     0.06000
C413        C  0.83852423  0.17917724  0.67312434     0.03900
C414        C  0.80108889  0.14282214  0.67314964     0.03900
C415        C  0.77154399  0.13820549  0.66422209    -0.16600
C416        C  0.77871227  0.16786970  0.65489911     0.03900
C417        C  0.81691471  0.20333401  0.65437471     0.03900
C418        C  0.84576459  0.20860265  0.66369460    -0.16600
H419        H  0.87471476  0.23615172  0.66354099     0.06000
H420        H  0.74260774  0.11061506  0.66436777     0.06000
C421        C  0.58130666  0.44905066  0.55349438     0.14300
C422        C  0.55572169  0.43158423  0.54269313     0.01300
C423        C  0.51700899  0.42597311  0.54318918     0.16300
C424        C  0.50434980  0.43809286  0.55414269     0.25700
C425        C  0.53036859  0.45682773  0.56477425    -0.40700
C426        C  0.56875501  0.46159473  0.56443638     0.32700
C427        C  0.56923980  0.41919642  0.53091469     0.01400
F428        F  0.49172149  0.40975146  0.53288612    -0.13000
F429        F  0.59473844  0.47980487  0.57444115    -0.13500
C430        C  0.54703194  0.37952847  0.52626018     0.16300
C431        C  0.55951791  0.36769817  0.51517194     0.25700
C432        C  0.59489778  0.39526102  0.50847490    -0.40600
C433        C  0.61694905  0.43518327  0.51313761     0.32600
C434        C  0.60411734  0.44698242  0.52418232     0.14400
F435        F  0.51355375  0.35179128  0.53265581    -0.13000
F436        F  0.65083666  0.46311094  0.50697970    -0.13500
F437        F  0.53722805  0.32881663  0.51123398    -0.15800
F438        F  0.62547264  0.48588204  0.52817601    -0.14300
F439        F  0.61852518  0.45398555  0.55344186    -0.14300
F440        F  0.46647478  0.43150312  0.55433733    -0.15700
C441        C  0.65725706  0.57116703  0.60341092     0.14300
C442        C  0.65711255  0.56636974  0.61705384     0.01300
C443        C  0.62022976  0.54225788  0.62346674     0.16300
C444        C  0.58428740  0.52403105  0.61639846     0.25700
C445        C  0.58460122  0.53005168  0.60286962    -0.40700
C446        C  0.62125770  0.55352645  0.59641564     0.32700
C447        C  0.69494366  0.58879031  0.62466688     0.01400
F448        F  0.61884144  0.53777958  0.63664621    -0.13000
F449        F  0.62208917  0.55986515  0.58334882    -0.13500
C450        C  0.71843897  0.63094532  0.62361857     0.16300
C451        C  0.75256613  0.65268112  0.63134951     0.25700
C452        C  0.76389111  0.63285454  0.64035207    -0.40600
C453        C  0.74096337  0.59067657  0.64127162     0.32600
C454        C  0.70690683  0.56879265  0.63343686     0.14400
F455        F  0.70732401  0.65135196  0.61551549    -0.13000
F456        F  0.75044496  0.57085778  0.65018701    -0.13500
F457        F  0.77415554  0.69338984  0.63028682    -0.15800
F458        F  0.68531306  0.52810553  0.63453852    -0.14300
F459        F  0.69232606  0.59324009  0.59687027    -0.14300
F460        F  0.54904296  0.50155233  0.62281173    -0.15700
C461        C  0.44695355  0.34429660  0.60803626     0.14300
C462        C  0.42861701  0.34316608  0.62001620     0.01300
C463        C  0.42852395  0.37778900  0.62421888     0.16300
C464        C  0.44610580  0.41271664  0.61658920     0.25700
C465        C  0.46401523  0.41379341  0.60452717    -0.40700
C466        C  0.46459226  0.37934050  0.60037260     0.32700
C467        C  0.40898781  0.30605933  0.62815554     0.01400
F468        F  0.41069541  0.37755869  0.63566478    -0.13000
F469        F  0.48127665  0.37919589  0.58872720    -0.13500
C470        C  0.42029880  0.30747989  0.64128259     0.16300
C471        C  0.39852399  0.27436560  0.64949569     0.25700
C472        C  0.36565336  0.23877601  0.64468010    -0.40600
C473        C  0.35538642  0.23652521  0.63142299     0.32600
C474        C  0.37682525  0.26996781  0.62321958     0.14400
F475        F  0.45210141  0.34131051  0.64621215    -0.13000
F476        F  0.32328596  0.20272359  0.62661402    -0.13500
F477        F  0.40924062  0.27707458  0.66224446    -0.15800
F478        F  0.36479146  0.26781961  0.61065066    -0.14300
F479        F  0.44809918  0.31158269  0.60381840    -0.14300
F480        F  0.44630573  0.44581409  0.62114699    -0.15700
C481        C  0.86490380  0.47198796  0.54268043     0.14300
C482        C  0.83217991  0.43245173  0.54226161     0.01300
C483        C  0.82578685  0.40620405  0.55271575     0.16300
C484        C  0.85211502  0.41918150  0.56335810     0.25700
C485        C  0.88538543  0.45845015  0.56361871    -0.40700
C486        C  0.89125190  0.48490375  0.55325900     0.32700
C487        C  0.80514330  0.41870957  0.53081401     0.01400
F488        F  0.79414951  0.36794717  0.55256536    -0.13000
F489        F  0.92266054  0.52332107  0.55335637    -0.13500
C490        C  0.80165180  0.38745176  0.52287530     0.16300
C491        C  0.77699722  0.37530593  0.51183067     0.25700
C492        C  0.75532639  0.39430947  0.50850028    -0.40600
C493        C  0.75888687  0.42558607  0.51656225     0.32600
C494        C  0.78358024  0.43763048  0.52757668     0.14400
F495        F  0.82287104  0.36926759  0.52566726    -0.13000
F496        F  0.73768091  0.44394343  0.51402489    -0.13500
F497        F  0.77495032  0.34537931  0.50430209    -0.15800
F498        F  0.78595893  0.46744660  0.53524459    -0.14300
F499        F  0.87199418  0.49775443  0.53263361    -0.14300
F500        F  0.84611655  0.39283863  0.57309933    -0.15700
C501        C  0.91510316  0.56435426  0.62212957     0.14300
C502        C  0.87947690  0.56261552  0.61822981     0.01300
C503        C  0.86090688  0.54251987  0.60656874     0.16300
C504        C  0.87788714  0.52500182  0.59888783     0.25700
C505        C  0.91358100  0.52687522  0.60277795    -0.40700
C506        C  0.93182830  0.54648254  0.61453469     0.32700
C507        C  0.86260442  0.58276907  0.62618636     0.01400
F508        F  0.82609295  0.53956370  0.60265745    -0.13000
F509        F  0.96549487  0.54768627  0.61883676    -0.13500
C510        C  0.85597333  0.61219620  0.62058926     0.16300
C511        C  0.84400289  0.63405601  0.62837883     0.25700
C512        C  0.83866538  0.62701825  0.64189330    -0.40600
C513        C  0.84384759  0.59665195  0.64740780     0.32600
C514        C  0.85535387  0.57450381  0.63962192     0.14400
F515        F  0.86322441  0.62135857  0.60770278    -0.13000
F516        F  0.83842104  0.58897819  0.66042737    -0.13500
F517        F  0.83987940  0.66367730  0.62285096    -0.15800
F518        F  0.85997840  0.54530379  0.64525224    -0.14300
F519        F  0.93424073  0.58410788  0.63320519    -0.14300
F520        F  0.85994150  0.50717829  0.58745255    -0.15700
C521        C  0.88371208  0.33504507  0.60509817     0.14300
C522        C  0.87161202  0.33671969  0.61795438     0.01300
C523        C  0.87610201  0.37320175  0.62252578     0.16300
C524        C  0.89254914  0.40722478  0.61445565     0.25700
C525        C  0.90568499  0.40568074  0.60181517    -0.40700
C526        C  0.90099350  0.36937177  0.59715684     0.32700
C527        C  0.85605415  0.30110270  0.62675397     0.01400
F528        F  0.86625823  0.37645061  0.63500955    -0.13000
F529        F  0.91316598  0.36722844  0.58489917    -0.13500
C530        C  0.87835695  0.28211504  0.62875632     0.16300
C531        C  0.86449917  0.24932898  0.63724847     0.25700
C532        C  0.82860609  0.23543440  0.64430919    -0.40600
C533        C  0.80648164  0.25471726  0.64242584     0.32600
C534        C  0.81967460  0.28668377  0.63354726     0.14400
F535        F  0.91444972  0.29625554  0.62285297    -0.13000
F536        F  0.77310348  0.24397977  0.64959703    -0.13500
F537        F  0.88672972  0.23155395  0.63877428    -0.15800
F538        F  0.79700895  0.30380983  0.63166806    -0.14300
F539        F  0.87885285  0.30014157  0.60023200    -0.14300
F540        F  0.89742827  0.44226058  0.61920375    -0.15700
C541        C  0.54465435  0.19428402  0.52536282     0.14300
C542        C  0.57264925  0.18870955  0.53232473     0.01300
C543        C  0.61247004  0.20789922  0.52790609     0.16300
C544        C  0.62398637  0.23149922  0.51659635     0.25700
C545        C  0.59592931  0.23685735  0.50946484    -0.40700
C546        C  0.55616182  0.21828853  0.51411964     0.32700
C547        C  0.56011523  0.16159688  0.54385830     0.01400
F548        F  0.64048405  0.20414410  0.53466274    -0.13000
F549        F  0.52803229  0.22269021  0.50770326    -0.13500
C550        C  0.56713467  0.12933221  0.54410387     0.16300
C551        C  0.55473247  0.10306938  0.55474467     0.25700
C552        C  0.53412030  0.10786373  0.56526139    -0.40600
C553        C  0.52759661  0.14047777  0.56513898     0.32600
C554        C  0.54064903  0.16723396  0.55454883     0.14400
F555        F  0.58491627  0.12242020  0.53381167    -0.13000
F556        F  0.50696995  0.14543129  0.57495663    -0.13500
F557        F  0.56276574  0.07272721  0.55471794    -0.15800
F558        F  0.53406899  0.19853558  0.55470137    -0.14300
F559        F  0.50577376  0.17552406  0.52923560    -0.14300
F560        F  0.66293361  0.24970886  0.51282673    -0.15700
C561        C  0.60705393  0.08017429  0.62484273     0.14300
C562        C  0.64187439  0.11580744  0.62098027     0.01300
C563        C  0.64146440  0.13426695  0.60917834     0.16300
C564        C  0.60695849  0.11730058  0.60136994     0.25700
C565        C  0.57225706  0.08150348  0.60521050    -0.40700
C566        C  0.57261745  0.06330500  0.61707736     0.32700
C567        C  0.67843859  0.13320464  0.62927784     0.01400
F568        F  0.67442196  0.16892380  0.60526003    -0.13000
F569        F  0.53934249  0.02937894  0.62127522    -0.13500
C570        C  0.71483230  0.13892842  0.62428604     0.16300
C571        C  0.74820601  0.15205357  0.63246298     0.25700
C572        C  0.74566460  0.15946876  0.64575651    -0.40600
C573        C  0.70966291  0.15474384  0.65066412     0.32600
C574        C  0.67650990  0.14209627  0.64248986     0.14400
F575        F  0.71744472  0.12979539  0.61165883    -0.13000
F576        F  0.70655080  0.16195864  0.66346737    -0.13500
F577        F  0.78232481  0.15545981  0.62757586    -0.15800
F578        F  0.64225196  0.13802442  0.64752404    -0.14300
F579        F  0.60661841  0.06117693  0.63605652    -0.14300
F580        F  0.60794337  0.13522403  0.58985886    -0.15700
C581        C  0.45105006  0.11384897  0.62245954     0.14300
C582        C  0.41851170  0.11627857  0.61744891     0.01300
C583        C  0.40549268  0.10267122  0.60460641     0.16300
C584        C  0.42357386  0.08567328  0.59719401     0.25700
C585        C  0.45574111  0.08310444  0.60231519    -0.40700
C586        C  0.46984530  0.09805217  0.61487698     0.32700
C587        C  0.39727341  0.13122371  0.62584425     0.01400
F588        F  0.37537591  0.10599034  0.59920197    -0.13000
F589        F  0.50078449  0.09569060  0.62004131    -0.13500
C590        C  0.41880979  0.16738699  0.63291800     0.16300
C591        C  0.39929086  0.17914829  0.64184504     0.25700
C592        C  0.35742104  0.15623662  0.64338796    -0.40600
C593        C  0.33572392  0.12086376  0.63594900     0.32600
C594        C  0.35542631  0.10817006  0.62746130     0.14400
F595        F  0.45899350  0.19122874  0.63131350    -0.13000
F596        F  0.29527665  0.09802302  0.63708866    -0.13500
F597        F  0.42170760  0.21188897  0.64942638    -0.15800
F598        F  0.33362596  0.07236503  0.62123941    -0.14300
F599        F  0.46363617  0.12514486  0.63492860    -0.14300
F600        F  0.40993008  0.07201573  0.58496265    -0.15700
C601        C  0.08007231  0.96865576  0.79561067     0.14300
C602        C  0.06509080  0.92760271  0.79338155     0.01300
C603        C  0.03871014  0.89922402  0.80246723     0.16300
C604        C  0.02773327  0.91177471  0.81373812     0.25700
C605        C  0.04299995  0.95304707  0.81609177    -0.40700
C606        C  0.06919718  0.98131848  0.80685023     0.32700
C607        C  0.07862839  0.91457807  0.78190090     0.01400
F608        F  0.02425149  0.85937466  0.80053897    -0.13000
F609        F  0.08335244  0.02121587  0.80844929    -0.13500
C610        C  0.11880518  0.92486863  0.78095887     0.16300
C611        C  0.13173480  0.91146780  0.77041517     0.25700
C612        C  0.10471038  0.88775555  0.76055403    -0.40600
C613        C  0.06475246  0.87865854  0.76128603     0.32600
C614        C  0.05169093  0.89159915  0.77196872     0.14400
F615        F  0.14536096  0.94730580  0.79042170    -0.13000
F616        F  0.03806172  0.85638575  0.75187304    -0.13500
F617        F  0.17088320  0.92219131  0.76975213    -0.15800
F618        F  0.01281060  0.88183663  0.77261613    -0.14300
F619        F  0.10482828  0.99647267  0.78676359    -0.14300
F620        F  0.00269344  0.88354638  0.82243256    -0.15700
C621        C  0.98453784  0.77547092  0.71854633     0.14300
C622        C  0.98875052  0.77884433  0.70485223     0.01300
C623        C  0.02759483  0.79978779  0.69945343     0.16300
C624        C  0.06126693  0.81778076  0.70756225     0.25700
C625        C  0.05683414  0.81448443  0.72117360    -0.40700
C626        C  0.01837833  0.79260869  0.72661873     0.32700
C627        C  0.95293295  0.75995586  0.69618455     0.01400
F628        F  0.03303317  0.80198653  0.68631016    -0.13000
F629        F  0.01361650  0.78711480  0.73972782    -0.13500
C630        C  0.94863954  0.78236726  0.68612733     0.16300
C631        C  0.91676233  0.76380082  0.67729596     0.25700
C632        C  0.88744827  0.72300188  0.67873465    -0.40600
C633        C  0.89104252  0.70081727  0.68895711     0.32600
C634        C  0.92366218  0.71894236  0.69751840     0.14400
F635        F  0.97575036  0.82217907  0.68470604    -0.13000
F636        F  0.86371809  0.66103777  0.69028625    -0.13500
F637        F  0.91590041  0.78513292  0.66691359    -0.15800
F638        F  0.92762228  0.69587304  0.70670798    -0.14300
F639        F  0.94764834  0.75593068  0.72412605    -0.14300
F640        F  0.09836152  0.83807370  0.70213198    -0.15700
C641        C  0.16156896  0.98144365  0.70638311     0.14300
C642        C  0.20279258  0.01003391  0.70699599     0.01300
C643        C  0.22691732  0.00307575  0.71556353     0.16300
C644        C  0.21040213  0.96831774  0.72323061     0.25700
C645        C  0.16963676  0.93838095  0.72203481    -0.40700
C646        C  0.14526267  0.94572475  0.71365135     0.32700
C647        C  0.22128717  0.04583505  0.69821194     0.01400
F648        F  0.26700369  0.02924598  0.71618066    -0.13000
F649        F  0.10598864  0.91781057  0.71200000    -0.13500
C650        C  0.24739493  0.08463051  0.70319148     0.16300
C651        C  0.26886822  0.11732071  0.69473029     0.25700
C652        C  0.26358599  0.11218702  0.68112480    -0.40600
C653        C  0.23592353  0.07381880  0.67620758     0.32600
C654        C  0.21542082  0.04095389  0.68462177     0.14400
F655        F  0.25286953  0.09071667  0.71627273    -0.13000
F656        F  0.22963470  0.06789593  0.66314457    -0.13500
F657        F  0.29639945  0.15342080  0.69982685    -0.15800
F658        F  0.19145343  0.00391946  0.67939176    -0.14300
F659        F  0.13705623  0.98786215  0.69860364    -0.14300
F660        F  0.23457634  0.96421783  0.73188394    -0.15700
C661        C  0.11578544  0.22018997  0.77966405     0.14300
C662        C  0.07804552  0.18492454  0.77971649     0.01300
C663        C  0.05190066  0.17705098  0.76914405     0.16300
C664        C  0.06307998  0.20457994  0.75881912     0.25700
C665        C  0.10061985  0.24028911  0.75891725    -0.40700
C666        C  0.12704195  0.24750645  0.76936401     0.32700
C667        C  0.06522314  0.15817193  0.79128786     0.01400
F668        F  0.01532928  0.14297533  0.76893118    -0.13000
F669        F  0.16388422  0.28122036  0.76965700    -0.13500
C670        C  0.03211628  0.15219605  0.79862879     0.16300
C671        C  0.02139268  0.12947581  0.81009650     0.25700
C672        C  0.04364830  0.11208874  0.81454003    -0.40600
C673        C  0.07698742  0.11823427  0.80711898     0.32600
C674        C  0.08751757  0.14093212  0.79559014     0.14400
F675        F  0.01074765  0.16945974  0.79489042    -0.13000
F676        F  0.09919968  0.10192541  0.81086366    -0.13500
F677        F  0.98942319  0.12515660  0.81692589    -0.15800
F678        F  0.11938311  0.14586328  0.78854571    -0.14300
F679        F  0.14122968  0.22898482  0.78987584    -0.14300
F680        F  0.03647160  0.19723497  0.74908852    -0.15700
C681        C  0.97510857  0.23912936  0.72021557     0.14300
C682        C  0.97365262  0.22493903  0.70744166     0.01300
C683        C  0.00824383  0.22715042  0.70214191     0.16300
C684        C  0.04382623  0.24432804  0.70934710     0.25700
C685        C  0.04556459  0.26039211  0.72177721    -0.40700
C686        C  0.01093492  0.25723165  0.72723891     0.32700
C687        C  0.93726435  0.21118506  0.69931661     0.01400
F688        F  0.00823714  0.21472601  0.68973697    -0.13000
F689        F  0.01197934  0.27199577  0.73936087    -0.13500
C690        C  0.92108364  0.23623559  0.69776095     0.16300
C691        C  0.88787922  0.22458181  0.68976945     0.25700
C692        C  0.87093967  0.18833809  0.68269668    -0.40600
C693        C  0.88727031  0.16330833  0.68415172     0.32600
C694        C  0.91957018  0.17422923  0.69262269     0.14400
F695        F  0.93843380  0.27290622  0.70358402    -0.13000
F696        F  0.87319062  0.12917883  0.67699699    -0.13500
F697        F  0.87272249  0.24931903  0.68870292    -0.15800
F698        F  0.93384151  0.14889528  0.69417781    -0.14300
F699        F  0.94192083  0.23603904  0.72581257    -0.14300
F700        F  0.07715194  0.24727279  0.70391600    -0.15700
C701        C  0.21147500  0.27500996  0.70153367     0.14300
C702        C  0.20595181  0.23698935  0.70446178     0.01300
C703        C  0.18080493  0.21491820  0.71489380     0.16300
C704        C  0.16252930  0.23115847  0.72257242     0.25700
C705        C  0.16824693  0.26952674  0.71974598    -0.40700
C706        C  0.19248631  0.29091517  0.70896817     0.32700
C707        C  0.22770128  0.22121461  0.69690291     0.01400
F708        F  0.17499284  0.17809190  0.71790959    -0.13000
F709        F  0.19717555  0.32689459  0.70537922    -0.13500
C710        C  0.26967993  0.24107376  0.69745705     0.16300
C711        C  0.29069529  0.22776912  0.68987759     0.25700
C712        C  0.27016424  0.19434974  0.68154809    -0.40600
C713        C  0.22804638  0.17390042  0.68120459     0.32600
C714        C  0.20697863  0.18715019  0.68886636     0.14400
F715        F  0.29034235  0.27361714  0.70530892    -0.13000
F716        F  0.20743669  0.14235340  0.67297962    -0.13500
F717        F  0.33128995  0.24779135  0.69056482    -0.15800
F718        F  0.16644883  0.16780190  0.68802378    -0.14300
F719        F  0.23502260  0.29662067  0.69133027    -0.14300
F720        F  0.14064883  0.20985578  0.73308101    -0.15700
C721        C  0.84603003  0.90612941  0.79711870     0.14300
C722        C  0.84640731  0.93598141  0.78920810     0.01300
C723        C  0.86940252  0.97643285  0.79297390     0.16300
C724        C  0.89124354  0.98690376  0.80462730     0.25700
C725        C  0.89018463  0.95693062  0.81281202    -0.40700
C726        C  0.86769320  0.91642507  0.80880738     0.32700
C727        C  0.81952275  0.92430392  0.77778067     0.01400
F728        F  0.87049863  0.00577972  0.78536802    -0.13000
F729        F  0.86554601  0.88655526  0.81638761    -0.13500
C730        C  0.78568484  0.92838881  0.77838066     0.16300
C731        C  0.75719976  0.91297374  0.76843357     0.25700
C732        C  0.76199766  0.89307120  0.75768012    -0.40600
C733        C  0.79697465  0.89086074  0.75672978     0.32600
C734        C  0.82549802  0.90623624  0.76677005     0.14400
F735        F  0.77935077  0.94576984  0.78892294    -0.13000
F736        F  0.80252951  0.87196536  0.74647350    -0.13500
F737        F  0.72457643  0.91709746  0.76940481    -0.15800
F738        F  0.85849602  0.90274254  0.76590869    -0.14300
F739        F  0.82329225  0.86675408  0.79375796    -0.14300
F740        F  0.91385718  0.02647757  0.80777574    -0.15700
C741        C  0.78094256  0.07739394  0.70334371     0.14300
C742        C  0.76976552  0.03995946  0.69761359     0.01300
C743        C  0.77117367  0.03741875  0.68394299     0.16300
C744        C  0.78183630  0.07104592  0.67613443     0.25700
C745        C  0.79194169  0.10820591  0.68179932    -0.40700
C746        C  0.79190197  0.11126023  0.69549311     0.32700
C747        C  0.75449591  0.00299096  0.70570391     0.01400
F748        F  0.76209014  0.00217707  0.67812333    -0.13000
F749        F  0.80107009  0.14659324  0.70124232    -0.13500
C750        C  0.71679588  0.96916766  0.70296867     0.16300
C751        C  0.70242942  0.93378677  0.71021157     0.25700
C752        C  0.72500404  0.93164321  0.72059981    -0.40600
C753        C  0.76249785  0.96568256  0.72348384     0.32600
C754        C  0.77724425  0.00090561  0.71603324     0.14400
F755        F  0.69355216  0.97049346  0.69330638    -0.13000
F756        F  0.78450139  0.96535081  0.73372846    -0.13500
F757        F  0.66671666  0.90131507  0.70683116    -0.15800
F758        F  0.81401971  0.03277334  0.71879749    -0.14300
F759        F  0.77965028  0.08078992  0.71650858    -0.14300
F760        F  0.78248896  0.06740362  0.66295564    -0.15700
C761        C  0.75322080  0.80738866  0.69829026     0.14300
C762        C  0.76654267  0.78261383  0.70365703     0.01300
C763        C  0.76292175  0.77553314  0.71723933     0.16300
C764        C  0.74557152  0.79205223  0.72518392     0.25700
C765        C  0.73264517  0.81681455  0.71976740    -0.40700
C766        C  0.73698267  0.82480365  0.70633053     0.32700
C767        C  0.78297000  0.76327184  0.69506959     0.01400
F768        F  0.77643949  0.75283766  0.72284470    -0.13000
F769        F  0.72436356  0.84855815  0.70095356    -0.13500
C770        C  0.81289508  0.78602534  0.68575879     0.16300
C771        C  0.82594323  0.76717500  0.67702225     0.25700
C772        C  0.81105304  0.72565028  0.67791699    -0.40600
C773        C  0.78203536  0.70306227  0.68740827     0.32600
C774        C  0.76763518  0.72149289  0.69575986     0.14400
F775        F  0.82915147  0.82649647  0.68498797    -0.13000
F776        F  0.76633686  0.66266190  0.68817616    -0.13500
F777        F  0.85145529  0.78916161  0.66727937    -0.15800
F778        F  0.73730159  0.69810417  0.70409004    -0.14300
F779        F  0.75456012  0.81361058  0.68520103    -0.14300
F780        F  0.74138125  0.78393088  0.73818299    -0.15700
C781        C  0.89255035  0.04517543  0.19243156     0.14300
C782        C  0.91337985  0.08498721  0.19694818     0.01300
C783        C  0.94668217  0.11416637  0.18989029     0.16300
C784        C  0.95875618  0.10369688  0.17839748     0.25700
C785        C  0.93725593  0.06394463  0.17367291    -0.40700
C786        C  0.90408269  0.03478701  0.18087431     0.32700
C787        C  0.89864191  0.09647579  0.20851844     0.01400
F788        F  0.96668997  0.15309489  0.19389880    -0.13000
F789        F  0.88304643  0.99587096  0.17688504    -0.13500
C790        C  0.92353072  0.11497302  0.21937338     0.16300
C791        C  0.91004419  0.12821991  0.22986164     0.25700
C792        C  0.87151336  0.12309155  0.22959121    -0.40600
C793        C  0.84598114  0.10265465  0.21903211     0.32600
C794        C  0.85954346  0.08982059  0.20854673     0.14400
F795        F  0.96100398  0.12057796  0.21972924    -0.13000
F796        F  0.80788036  0.09542948  0.21880297    -0.13500
F797        F  0.93528688  0.14770591  0.23994149    -0.15800
F798        F  0.83491473  0.07218514  0.19817094    -0.14300
F799        F  0.86095528  0.01621775  0.19926754    -0.14300
F800        F  0.99071361  0.13270082  0.17171720    -0.15700
C801        C  0.99210369  0.24150113  0.27081263     0.14300
C802        C  0.98814393  0.23176819  0.28419589     0.01300
C803        C  0.95019975  0.20357959  0.28918320     0.16300
C804        C  0.91664738  0.18649765  0.28100585     0.25700
C805        C  0.92050751  0.19775279  0.26781229    -0.40700
C806        C  0.95842993  0.22482778  0.26270129     0.32700
C807        C  0.02282377  0.25374068  0.29309087     0.01400
F808        F  0.94532485  0.19404762  0.30208090    -0.13000
F809        F  0.96272865  0.23524274  0.24988238    -0.13500
C810        C  0.04198327  0.29585147  0.29391289     0.16300
C811        C  0.07406725  0.31715498  0.30242705     0.25700
C812        C  0.08767456  0.29683851  0.31034264    -0.40600
C813        C  0.06841152  0.25464904  0.30963419     0.32600
C814        C  0.03624236  0.23323179  0.30103479     0.14400
F815        F  0.02886146  0.31633448  0.28668976    -0.13000
F816        F  0.08007677  0.23419035  0.31749282    -0.13500
F817        F  0.09201685  0.35785537  0.30294571    -0.15800
F818        F  0.01823909  0.19254794  0.30044751    -0.14300
F819        F  0.02859532  0.26759667  0.26566029    -0.14300
F820        F  0.88010162  0.16011327  0.28606201    -0.15700
C821        C  0.76808949  0.96435144  0.30018177     0.14300
C822        C  0.74680978  0.97846341  0.29303902     0.01300
C823        C  0.70494246  0.95830324  0.29405513     0.16300
C824        C  0.68459204  0.92495891  0.30223910     0.25700
C825        C  0.70573411  0.91139254  0.30975572    -0.40700
C826        C  0.74776564  0.93140738  0.30864327     0.32700
C827        C  0.76788161  0.01525904  0.28495283     0.01400
F828        F  0.68376261  0.97126370  0.28717242    -0.13000
F829        F  0.76935184  0.92063380  0.31625339    -0.13500
C830        C  0.78881553  0.01609198  0.27365611     0.16300
C831        C  0.80572777  0.04989416  0.26548095     0.25700
C832        C  0.80217303  0.08348893  0.26855073    -0.40600
C833        C  0.78216200  0.08294054  0.28008210     0.32600
C834        C  0.76512351  0.04910040  0.28818198     0.14400
F835        F  0.79173039  0.98366131  0.27033047    -0.13000
F836        F  0.77989495  0.11553364  0.28369429    -0.13500
F837        F  0.82428036  0.04911843  0.25432908    -0.15800
F838        F  0.74602227  0.04937067  0.29926705    -0.14300
F839        F  0.80864442  0.98361774  0.29940992    -0.14300
F840        F  0.64406301  0.90623016  0.30300729    -0.15700
C841        C  0.85495889  0.81925271  0.21456488     0.14300
C842        C  0.89273943  0.83313144  0.20883833     0.01300
C843        C  0.91913566  0.82260577  0.21449494     0.16300
C844        C  0.90754549  0.79771608  0.22549424     0.25700
C845        C  0.86955086  0.78320947  0.23101413    -0.40700
C846        C  0.84331858  0.79413094  0.22552344     0.32700
C847        C  0.90431147  0.85768432  0.19678115     0.01400
F848        F  0.95592299  0.83598260  0.20922667    -0.13000
F849        F  0.80579791  0.77894747  0.23041362    -0.13500
C850        C  0.90643295  0.89504435  0.19669707     0.16300
C851        C  0.91820622  0.91863575  0.18539746     0.25700
C852        C  0.92815198  0.90530813  0.17398241    -0.40600
C853        C  0.92591904  0.86784936  0.17405042     0.32600
C854        C  0.91381381  0.84408756  0.18534363     0.14400
F855        F  0.89811081  0.90915146  0.20767735    -0.13000
F856        F  0.93451529  0.85385335  0.16310171    -0.13500
F857        F  0.92137458  0.95526346  0.18576716    -0.15800
F858        F  0.91071912  0.80746803  0.18506955    -0.14300
F859        F  0.82869273  0.82850475  0.20918027    -0.14300
F860        F  0.93260034  0.78610523  0.23037017    -0.15700
C861        C  0.95398655  0.74947946  0.28773032     0.14300
C862        C  0.98662333  0.78814094  0.28517797     0.01300
C863        C  0.98484411  0.80969058  0.27439546     0.16300
C864        C  0.95089898  0.79291511  0.26633981     0.25700
C865        C  0.91811076  0.75415086  0.26889802    -0.40700
C866        C  0.92003221  0.73278704  0.27976124     0.32700
C867        C  0.02210207  0.80579963  0.29391875     0.01400
F868        F  0.01572089  0.84732442  0.27180819    -0.13000
F869        F  0.88845764  0.69618664  0.28298680    -0.13500
C870        C  0.06021161  0.81655796  0.28906261     0.16300
C871        C  0.09282087  0.82976183  0.29757428     0.25700
C872        C  0.08794318  0.83286201  0.31106045    -0.40600
C873        C  0.05004796  0.82316360  0.31583767     0.32600
C874        C  0.01750103  0.80984663  0.30735492     0.14400
F875        F  0.06537790  0.81224660  0.27617363    -0.13000
F876        F  0.04441477  0.82586960  0.32880674    -0.13500
F877        F  0.12856412  0.83725813  0.29274497    -0.15800
F878        F  0.98122341  0.80032763  0.31229137    -0.14300
F879        F  0.95507521  0.72768025  0.29796035    -0.14300
F880        F  0.95049377  0.81449431  0.25595224    -0.15700
C881        C  0.76284975  0.82123511  0.30643294     0.14300
C882        C  0.74957788  0.80923005  0.29357285     0.01300
C883        C  0.71682660  0.81165953  0.28888030     0.16300
C884        C  0.69669302  0.82447956  0.29712977     0.25700
C885        C  0.70907713  0.83490197  0.31014025    -0.40700
C886        C  0.74250508  0.83359180  0.31469079     0.32700
C887        C  0.76805193  0.79133922  0.28545315     0.01400
F888        F  0.70308140  0.79955093  0.27655322    -0.13000
F889        F  0.75492094  0.84363311  0.32723866    -0.13500
C890        C  0.76537256  0.75519183  0.28936793     0.16300
C891        C  0.78220737  0.73762978  0.28170810     0.25700
C892        C  0.80220359  0.75601468  0.27000205    -0.40600
C893        C  0.80563648  0.79272873  0.26625109     0.32600
C894        C  0.78831711  0.81001665  0.27385365     0.14400
F895        F  0.74589127  0.73660190  0.30055711    -0.13000
F896        F  0.82496780  0.81152940  0.25509082    -0.13500
F897        F  0.77970611  0.70306865  0.28589035    -0.15800
F898        F  0.79161465  0.84518394  0.26996406    -0.14300
F899        F  0.79503186  0.82010249  0.31105723    -0.14300
F900        F  0.66382593  0.82459490  0.29266971    -0.15700
C901        C  0.10301879  0.04640768  0.19479491     0.14300
C902        C  0.13711258  0.08511316  0.19535728     0.01300
C903        C  0.14692309  0.11069533  0.18446774     0.16300
C904        C  0.12305502  0.09773846  0.17321274     0.25700
C905        C  0.08912512  0.05875590  0.17258907    -0.40700
C906        C  0.07935722  0.03328998  0.18353169     0.32700
C907        C  0.16274646  0.09835013  0.20721401     0.01400
F908        F  0.18012536  0.14797951  0.18463446    -0.13000
F909        F  0.04598480  0.99611310  0.18352788    -0.13500
C910        C  0.18070600  0.07669215  0.21157102     0.16300
C911        C  0.20567735  0.08956179  0.22254580     0.25700
C912        C  0.21290477  0.12410793  0.22939199    -0.40600
C913        C  0.19518136  0.14589050  0.22504893     0.32600
C914        C  0.17001909  0.13295548  0.21410534     0.14400
F915        F  0.17527442  0.04394001  0.20487880    -0.13000
F916        F  0.20388725  0.18080510  0.23099815    -0.13500
F917        F  0.22393863  0.06909415  0.22625020    -0.15800
F918        F  0.15302044  0.15440773  0.21016478    -0.14300
F919        F  0.09210103  0.02155837  0.20530671    -0.14300
F920        F  0.13361661  0.12305650  0.16283468    -0.15700
C921        C  0.15873119  0.96342295  0.30144456     0.14300
C922        C  0.19308161  0.97752493  0.29360563     0.01300
C923        C  0.21456201  0.95729790  0.29388681     0.16300
C924        C  0.20240620  0.92396794  0.30204506     0.25700
C925        C  0.16874045  0.91043691  0.31021894    -0.40700
C926        C  0.14679039  0.93030504  0.30976496     0.32700
C927        C  0.20785970  0.01435813  0.28554002     0.01400
F928        F  0.24761754  0.97014222  0.28630714    -0.13000
F929        F  0.11490949  0.91882473  0.31779424    -0.13500
C930        C  0.24286414  0.04992730  0.28918790     0.16300
C931        C  0.25863393  0.08413117  0.28122018     0.25700
C932        C  0.23977904  0.08338989  0.26938535    -0.40600
C933        C  0.20409453  0.04803530  0.26591274     0.32600
C934        C  0.18829176  0.01378028  0.27393291     0.14400
F935        F  0.26179963  0.05145681  0.30050660    -0.13000
F936        F  0.18545422  0.04604334  0.25449047    -0.13500
F937        F  0.29213928  0.11820669  0.28516793    -0.15800
F938        F  0.15462105  0.97959384  0.27016787    -0.14300
F939        F  0.13771587  0.98273023  0.30141019    -0.14300
F940        F  0.22371468  0.90494511  0.30203669    -0.15700
C941        C  0.18881497  0.24932637  0.30592285     0.14300
C942        C  0.18813505  0.25431873  0.29233507     0.01300
C943        C  0.17435537  0.27923862  0.28750955     0.16300
C944        C  0.16353931  0.30039521  0.29615407     0.25700
C945        C  0.16567700  0.29644456  0.30977975    -0.40700
C946        C  0.17787924  0.27019383  0.31452235     0.32700
C947        C  0.20524662  0.23626317  0.28346639     0.01400
F948        F  0.17337586  0.28476947  0.27445005    -0.13000
F949        F  0.17977423  0.26516928  0.32757586    -0.13500
C950        C  0.18266837  0.20979379  0.27332486     0.16300
C951        C  0.19912531  0.19192230  0.26547382     0.25700
C952        C  0.23859716  0.20030755  0.26759272    -0.40600
C953        C  0.26082435  0.22666955  0.27784557     0.32600
C954        C  0.24460837  0.24479960  0.28549794     0.14400
F955        F  0.14438655  0.20055103  0.27119087    -0.13000
F956        F  0.29799556  0.23396343  0.28086264    -0.13500
F957        F  0.17640141  0.16679207  0.25576405    -0.15800
F958        F  0.26761562  0.27094965  0.29498689    -0.14300
F959        F  0.20083724  0.22460799  0.31089833    -0.14300
F960        F  0.15304503  0.32629817  0.29119420    -0.15700
C961        C  0.36121005  0.82242307  0.55934837     0.14300
C962        C  0.40216835  0.85132665  0.56010103     0.01300
C963        C  0.42937802  0.84681753  0.55228586     0.16300
C964        C  0.41576664  0.81483032  0.54345611     0.25700
C965        C  0.37450013  0.78665354  0.54224424    -0.40700
C966        C  0.34745619  0.79033647  0.55052133     0.32700
C967        C  0.41652066  0.88814698  0.56810215     0.01400
F968        F  0.46905950  0.87474065  0.55269912    -0.13000
F969        F  0.30761836  0.76306729  0.55000760    -0.13500
C970        C  0.44279994  0.89627401  0.57857024     0.16300
C971        C  0.46085096  0.93365198  0.58490982     0.25700
C972        C  0.45416508  0.96457027  0.58049288    -0.40600
C973        C  0.42434758  0.95424409  0.57083752     0.32600
C974        C  0.40620055  0.91677827  0.56464285     0.14400
F975        F  0.45132680  0.86796783  0.58258616    -0.13000
F976        F  0.41430459  0.98146875  0.56682571    -0.13500
F977        F  0.48372256  0.93822537  0.59546455    -0.15800
F978        F  0.38020350  0.90934193  0.55469835    -0.14300
F979        F  0.33448557  0.82567226  0.56703968    -0.14300
F980        F  0.44287872  0.81290821  0.53556396    -0.15700
C981        C  0.41018860  0.52429101  0.56709863     0.14300
C982        C  0.42601281  0.56606863  0.56745599     0.01300
C983        C  0.45933639  0.58944061  0.57550653     0.16300
C984        C  0.47854223  0.57215230  0.58215250     0.25700
C985        C  0.46441316  0.53040933  0.58108896    -0.40700
C986        C  0.42859600  0.50673681  0.57395369     0.32700
C987        C  0.40962948  0.58541195  0.55874590     0.01400
F988        F  0.47417059  0.62961266  0.57668657    -0.13000
F989        F  0.41285294  0.46641414  0.57274696    -0.13500
C990        C  0.36820676  0.57086731  0.55809270     0.16300
C991        C  0.35285056  0.58706091  0.54912825     0.25700
C992        C  0.37862274  0.61903446  0.54079970    -0.40600
C993        C  0.42018808  0.63436108  0.54175510     0.32600
C994        C  0.43537158  0.61742209  0.55046082     0.14400
F995        F  0.34242150  0.54092806  0.56617954    -0.13000
F996        F  0.44629462  0.66465989  0.53383332    -0.13500
F997        F  0.31262097  0.57137607  0.54866151    -0.15800
F998        F  0.47530626  0.63126917  0.55033700    -0.14300
F999        F  0.37839615  0.50046315  0.55935367    -0.14300
F1000       F  0.51167051  0.59735064  0.58905739    -0.15700
C1001       C  0.14678890  0.55418781  0.55002412     0.14300
C1002       C  0.14018457  0.57924047  0.55832175     0.01300
C1003       C  0.16774453  0.62083468  0.55824342     0.16300
C1004       C  0.20023721  0.63736100  0.54959907     0.25700
C1005       C  0.20617661  0.61251622  0.54092332    -0.40700
C1006       C  0.17952116  0.57056113  0.54147343     0.32700
C1007       C  0.10295970  0.56232754  0.56624834     0.01400
F1008       F  0.16287156  0.64560328  0.56645872    -0.13000
F1009       F  0.18375795  0.54537139  0.53326035    -0.13500
C1010       C  0.09253322  0.53058352  0.57502664     0.16300
C1011       C  0.05536957  0.51185208  0.58142258     0.25700
C1012       C  0.02717394  0.52409599  0.57894790    -0.40600
C1013       C  0.03971502  0.55845055  0.57097083     0.32600
C1014       C  0.07665265  0.57677882  0.56457217     0.14400
F1015       F  0.11836664  0.51737485  0.57734319    -0.13000
F1016       F  0.01497998  0.57304875  0.56871551    -0.13500
F1017       F  0.04817348  0.48224003  0.58997353    -0.15800
F1018       F  0.08569392  0.60734955  0.55611591    -0.14300
F1019       F  0.12031886  0.51396379  0.54968793    -0.14300
F1020       F  0.22567243  0.67779846  0.54967766    -0.15700
C1021       C  0.55838881  0.09762923  0.42518595     0.14300
C1022       C  0.54467346  0.12446931  0.42324599     0.01300
C1023       C  0.51495435  0.11530283  0.41386251     0.16300
C1024       C  0.49733168  0.07870003  0.40706347     0.25700
C1025       C  0.50837975  0.04963628  0.40983442    -0.40700
C1026       C  0.54085998  0.06101176  0.41850760     0.32700
C1027       C  0.55997558  0.16082683  0.43156101     0.01400
F1028       F  0.50249986  0.14174013  0.41140073    -0.13000
F1029       F  0.55407351  0.03530361  0.42120769    -0.13500
C1030       C  0.60088103  0.19015547  0.43159905     0.16300
C1031       C  0.61592107  0.22237854  0.44039043     0.25700
C1032       C  0.59024775  0.22596813  0.44933310    -0.40600
C1033       C  0.54898278  0.19704039  0.44899530     0.32600
C1034       C  0.53407477  0.16482231  0.44020561     0.14400
F1035       F  0.62635489  0.18733853  0.42316522    -0.13000
F1036       F  0.52323042  0.19865649  0.45761784    -0.13500
F1037       F  0.65569172  0.25000285  0.44015320    -0.15800
F1038       F  0.49454077  0.13638093  0.44057083    -0.14300
F1039       F  0.58725188  0.10579026  0.43417763    -0.14300
F1040       F  0.46964707  0.07274428  0.39796005    -0.15700
C1041       C  0.42271595  0.83285731  0.46767603     0.14300
C1042       C  0.39359147  0.83100012  0.45910979     0.01300
C1043       C  0.35295862  0.80597688  0.46218649     0.16300
C1044       C  0.34150686  0.78255006  0.47353448     0.25700
C1045       C  0.37056643  0.78351118  0.48206457    -0.40700
C1046       C  0.41138842  0.80935918  0.47903902     0.32700
C1047       C  0.40559134  0.85615884  0.44717409     0.01400
F1048       F  0.32427113  0.80364664  0.45403281    -0.13000
F1049       F  0.44045003  0.81241142  0.48715253    -0.13500
C1050       C  0.42715082  0.85057073  0.43716537     0.16300
C1051       C  0.44019410  0.87591763  0.42620720     0.25700
C1052       C  0.43205589  0.90733317  0.42519148    -0.40600
C1053       C  0.40910887  0.91178270  0.43499153     0.32600
C1054       C  0.39609830  0.88650057  0.44588253     0.14400
F1055       F  0.43586537  0.82080339  0.43809597    -0.13000
F1056       F  0.39960633  0.94101038  0.43408276    -0.13500
F1057       F  0.46238461  0.87099447  0.41694394    -0.15800
F1058       F  0.37535170  0.89253060  0.45541049    -0.14300
F1059       F  0.46221312  0.85804951  0.46513526    -0.14300
F1060       F  0.30183963  0.75812939  0.47593233    -0.15700
C1061       C  0.59457414  0.87217871  0.36874517     0.14300
C1062       C  0.56886151  0.88459618  0.36365158     0.01300
C1063       C  0.56349596  0.88379084  0.35003746     0.16300
C1064       C  0.58365781  0.87137219  0.34172009     0.25700
C1065       C  0.61042508  0.86038541  0.34676213    -0.40700
C1066       C  0.61556695  0.86066703  0.36036089     0.32700
C1067       C  0.54884421  0.89997154  0.37235691     0.01400
F1068       F  0.54002016  0.89672762  0.34470421    -0.13000
F1069       F  0.64218065  0.85151155  0.36549666    -0.13500
C1070       C  0.57130737  0.93141484  0.38120300     0.16300
C1071       C  0.55281055  0.94743451  0.38884483     0.25700
C1072       C  0.51154465  0.93339872  0.38748586    -0.40600
C1073       C  0.48920031  0.90194006  0.37856851     0.32600
C1074       C  0.50746590  0.88491385  0.37133235     0.14400
F1075       F  0.61153889  0.94762188  0.38216915    -0.13000
F1076       F  0.44996492  0.88864417  0.37630499    -0.13500
F1077       F  0.57549094  0.97657110  0.39762666    -0.15800
F1078       F  0.48461594  0.85379837  0.36317469    -0.14300
F1079       F  0.59972139  0.87161561  0.38184029    -0.14300
F1080       F  0.57774875  0.87094999  0.32863194    -0.15700
C1081       C  0.26602913  0.84781385  0.35540396     0.14300
C1082       C  0.28385803  0.88375589  0.36264296     0.01300
C1083       C  0.26639599  0.90789241  0.36243529     0.16300
C1084       C  0.23242553  0.89697597  0.35486832     0.25700
C1085       C  0.21519713  0.86174367  0.34726165    -0.40700
C1086       C  0.23211863  0.83702187  0.34768123     0.32700
C1087       C  0.32192849  0.89780888  0.36984523     0.01400
F1088       F  0.28268324  0.94248461  0.36947000    -0.13000
F1089       F  0.21709099  0.80355581  0.34013179    -0.13500
C1090       C  0.35612791  0.93421381  0.36624640     0.16300
C1091       C  0.39108744  0.95015741  0.37368641     0.25700
C1092       C  0.39250927  0.93034848  0.38504939    -0.40600
C1093       C  0.35887996  0.89283569  0.38830300     0.32600
C1094       C  0.32388617  0.87664494  0.38072161     0.14400
F1095       F  0.35547179  0.95464417  0.35554554    -0.13000
F1096       F  0.35899638  0.87286586  0.39919447    -0.13500
F1097       F  0.42365005  0.98513560  0.36974608    -0.15800
F1098       F  0.29129879  0.84127713  0.38435627    -0.14300
F1099       F  0.28259294  0.82421482  0.35532758    -0.14300
F1100       F  0.21656524  0.92121934  0.35481591    -0.15700
C1101       C  0.54185164  0.38721589  0.43248830     0.14300
C1102       C  0.55854721  0.42902117  0.43127125     0.01300
C1103       C  0.59272511  0.45482434  0.43860652     0.16300
C1104       C  0.60937786  0.43929954  0.44724265     0.25700
C1105       C  0.59206721  0.39735339  0.44883967    -0.40700
C1106       C  0.55835609  0.37149685  0.44117553     0.32700
C1107       C  0.53883397  0.44607888  0.42323575     0.01400
F1108       F  0.60884912  0.49529948  0.43793024    -0.13000
F1109       F  0.54097757  0.33092769  0.44214430    -0.13500
C1110       C  0.49941285  0.43595341  0.42599376     0.16300
C1111       C  0.48247236  0.45583268  0.41971727     0.25700
C1112       C  0.50493610  0.48766095  0.41080136    -0.40600
C1113       C  0.54347883  0.49525632  0.40726171     0.32600
C1114       C  0.56014063  0.47480348  0.41349027     0.14400
F1115       F  0.47791591  0.40833321  0.43535768    -0.13000
F1116       F  0.56532551  0.52159557  0.39771048    -0.13500
F1117       F  0.44436868  0.44526463  0.42293778    -0.15800
F1118       F  0.59750500  0.48339094  0.41008209    -0.14300
F1119       F  0.50922488  0.36154478  0.42534674    -0.14300
F1120       F  0.64137165  0.46563248  0.45449978    -0.15700
C1121       C  0.36056795  0.58394274  0.46202722     0.14300
C1122       C  0.40135543  0.60181896  0.45887780     0.01300
C1123       C  0.42995441  0.63223121  0.46701719     0.16300
C1124       C  0.41784836  0.64477893  0.47805063     0.25700
C1125       C  0.37691795  0.62653241  0.48127014    -0.40700
C1126       C  0.34847940  0.59586247  0.47313089     0.32700
C1127       C  0.41368947  0.58792736  0.44723745     0.01400
F1128       F  0.46966610  0.64910735  0.46446594    -0.13000
F1129       F  0.30866681  0.57799734  0.47567894    -0.13500
C1130       C  0.43793155  0.61521984  0.43746671     0.16300
C1131       C  0.44928894  0.60164252  0.42650416     0.25700
C1132       C  0.43662589  0.56070695  0.42521258    -0.40600
C1133       C  0.41168175  0.53337397  0.43480206     0.32600
C1134       C  0.40055123  0.54684758  0.44575264     0.14400
F1135       F  0.45063038  0.65497536  0.43855504    -0.13000
F1136       F  0.39862185  0.49353510  0.43363723    -0.13500
F1137       F  0.47398100  0.62862913  0.41746471    -0.15800
F1138       F  0.37789660  0.51984886  0.45512245    -0.14300
F1139       F  0.33218663  0.55525363  0.45418457    -0.14300
F1140       F  0.44624373  0.67410257  0.48572091    -0.15700
C1141       C  0.28695921  0.44177725  0.34989729     0.14300
C1142       C  0.28352434  0.43292448  0.36332389     0.01300
C1143       C  0.24567128  0.40505456  0.36847330     0.16300
C1144       C  0.21221224  0.38531255  0.36023998     0.25700
C1145       C  0.21597797  0.39341242  0.34674210    -0.40700
C1146       C  0.25359213  0.42221891  0.34170288     0.32700
C1147       C  0.31993376  0.45119435  0.37169567     0.01400
F1148       F  0.24153834  0.39533446  0.38135180    -0.13000
F1149       F  0.25819120  0.43070457  0.32872758    -0.13500
C1150       C  0.32323410  0.47470776  0.38263605     0.16300
C1151       C  0.35823275  0.49269650  0.39021788     0.25700
C1152       C  0.39065946  0.48760035  0.38696589    -0.40600
C1153       C  0.38715868  0.46394386  0.37601550     0.32600
C1154       C  0.35210218  0.44569600  0.36855801     0.14400
F1155       F  0.29279483  0.48079984  0.38585443    -0.13000
F1156       F  0.41812914  0.45930715  0.37226474    -0.13500
F1157       F  0.35995623  0.51432919  0.40090065    -0.15800
F1158       F  0.34946383  0.42231660  0.35825991    -0.14300
F1159       F  0.32292998  0.46903667  0.34467420    -0.14300
F1160       F  0.17675903  0.35651592  0.36533176    -0.15700
C1161       C  0.61011822  0.73408387  0.36243058     0.14300
C1162       C  0.56812272  0.71483211  0.36306931     0.01300
C1163       C  0.54845505  0.72983584  0.35540800     0.16300
C1164       C  0.57044196  0.76319055  0.34719906     0.25700
C1165       C  0.61250603  0.78257219  0.34671004    -0.40700
C1166       C  0.63201654  0.76768804  0.35444739     0.32700
C1167       C  0.54543448  0.67857330  0.37148250     0.01400
F1168       F  0.50798425  0.71220694  0.35586208    -0.13000
F1169       F  0.67254470  0.78562430  0.35418527    -0.13500
C1170       C  0.55575012  0.67980891  0.38473733     0.16300
C1171       C  0.53812761  0.64467697  0.39229195     0.25700
C1172       C  0.50906093  0.60793283  0.38684931    -0.40600
C1173       C  0.49721032  0.60684446  0.37383553     0.32600
C1174       C  0.51554256  0.64177925  0.36614994     0.14400
F1175       F  0.58320084  0.71510553  0.39033861    -0.13000
F1176       F  0.46894521  0.57156990  0.36843897    -0.13500
F1177       F  0.54948484  0.64648394  0.40492890    -0.15800
F1178       F  0.50536316  0.63923782  0.35335571    -0.14300
F1179       F  0.63000354  0.71954151  0.36926039    -0.14300
F1180       F  0.55056171  0.77565626  0.33941438    -0.15700
C1181       C  0.89532671  0.49552884  0.42580444     0.14300
C1182       C  0.86582428  0.45551849  0.42323078     0.01300
C1183       C  0.87321839  0.43446021  0.41349926     0.16300
C1184       C  0.91052169  0.45183889  0.40717441     0.25700
C1185       C  0.94182961  0.49087018  0.41062385    -0.40700
C1186       C  0.93244870  0.51309788  0.41948437     0.32700
C1187       C  0.82881273  0.43499387  0.43137407     0.01400
F1188       F  0.84423534  0.39658239  0.41020476    -0.13000
F1189       F  0.96029962  0.55160892  0.42261506    -0.13500
C1190       C  0.80343249  0.45084914  0.43265213     0.16300
C1191       C  0.77073573  0.43331627  0.44127831     0.25700
C1192       C  0.76258628  0.39937518  0.44884104    -0.40600
C1193       C  0.78745159  0.38286088  0.44718974     0.32600
C1194       C  0.82016426  0.40056978  0.43861962     0.14400
F1195       F  0.81044675  0.48355448  0.42558292    -0.13000
F1196       F  0.78142700  0.35058661  0.45431186    -0.13500
F1197       F  0.74722848  0.44983345  0.44225059    -0.15800
F1198       F  0.84468061  0.38514687  0.43788844    -0.14300
F1199       F  0.88916625  0.51704112  0.43503909    -0.14300
F1200       F  0.91490801  0.42998417  0.39770479    -0.15700
C1201       C  0.10435883  0.58781550  0.44773951     0.14300
C1202       C  0.13901744  0.58517192  0.44699424     0.01300
C1203       C  0.14687337  0.57056533  0.43547828     0.16300
C1204       C  0.11991185  0.55790445  0.42496799     0.25700
C1205       C  0.08436275  0.55923687  0.42587265    -0.40700
C1206       C  0.07748874  0.57527805  0.43730482     0.32700
C1207       C  0.16661992  0.59770193  0.45832722     0.01400
F1208       F  0.18075400  0.56870137  0.43440917    -0.13000
F1209       F  0.04491779  0.57944864  0.43836528    -0.13500
C1210       C  0.17151148  0.56931439  0.46537785     0.16300
C1211       C  0.19563365  0.58079254  0.47658386     0.25700
C1212       C  0.21532418  0.62102965  0.48099379    -0.40600
C1213       C  0.21018564  0.64931919  0.47382794     0.32600
C1214       C  0.18627081  0.63776648  0.46261887     0.14400
F1215       F  0.15188691  0.53014914  0.46162472    -0.13000
F1216       F  0.22862385  0.68844947  0.47753854    -0.13500
F1217       F  0.19876441  0.55220212  0.48328794    -0.15800
F1218       F  0.18238446  0.66586350  0.45587924    -0.14300
F1219       F  0.09610764  0.60190201  0.45873952    -0.14300
F1220       F  0.12820758  0.54336585  0.41411329    -0.15700
C1221       C  0.06421257  0.67223152  0.38246618     0.14300
C1222       C  0.09317059  0.67985039  0.37285498     0.01300
C1223       C  0.10581616  0.65186337  0.37114410     0.16300
C1224       C  0.08890364  0.61641585  0.37854066     0.25700
C1225       C  0.05962796  0.60855552  0.38809050    -0.40700
C1226       C  0.04815594  0.63739830  0.39013850     0.32700
C1227       C  0.10865459  0.71582215  0.36420848     0.01400
F1228       F  0.13445249  0.65868242  0.36219358    -0.13000
F1229       F  0.02150309  0.63214014  0.39964806    -0.13500
C1230       C  0.12412982  0.75472890  0.36944651     0.16300
C1231       C  0.13636208  0.78801542  0.36119131     0.25700
C1232       C  0.13440490  0.78316908  0.34754036    -0.40600
C1233       C  0.11992113  0.74444992  0.34234284     0.32600
C1234       C  0.10671118  0.71115468  0.35055339     0.14400
F1235       F  0.12716819  0.76049034  0.38257304    -0.13000
F1236       F  0.11793281  0.73876385  0.32921059    -0.13500
F1237       F  0.14863728  0.82462437  0.36654785    -0.15800
F1238       F  0.09053667  0.67404324  0.34511006    -0.14300
F1239       F  0.05035557  0.69786917  0.38415791    -0.14300
F1240       F  0.10015821  0.58916556  0.37591335    -0.15700
C1241       C  0.09395516  0.45227199  0.38509951     0.14300
C1242       C  0.09268142  0.45295940  0.37136213     0.04300
C1243       C  0.07398039  0.47186614  0.36531002     0.16300
C1244       C  0.05684027  0.48955462  0.37286652     0.25700
C1245       C  0.05819063  0.48870573  0.38656721    -0.40700
C1246       C  0.07661591  0.46974255  0.39261820     0.32700
C1247       C  0.10878864  0.43198731  0.36342635     0.01400
F1248       F  0.07107517  0.47195535  0.35209567    -0.13000
F1249       F  0.07679700  0.46714006  0.40583226    -0.13500
C1250       C  0.09378501  0.39061264  0.36525790     0.16300
C1251       C  0.10722648  0.37013480  0.35744496     0.25700
C1252       C  0.13620616  0.39057079  0.34771331    -0.40600
C1253       C  0.15191473  0.43206277  0.34600885     0.32600
C1254       C  0.13827519  0.45262575  0.35378957     0.14400
F1255       F  0.06471126  0.36958079  0.37424529    -0.13000
F1256       F  0.17906281  0.45221239  0.33641285    -0.13500
F1257       F  0.09111710  0.32992295  0.35912235    -0.15800
F1258       F  0.15351116  0.49258602  0.35182011    -0.14300
F1259       F  0.11192152  0.43449639  0.39124326    -0.14300
F1260       F  0.03826407  0.50688208  0.36682513    -0.15700
C1261       C  0.79366256  0.25485823  0.24036785     0.14300
C1262       C  0.76294673  0.23284704  0.23132914     0.01300
C1263       C  0.75100296  0.19249936  0.22902632     0.16300
C1264       C  0.77058134  0.17503399  0.23517894     0.25700
C1265       C  0.80370281  0.19772769  0.24355512    -0.40700
C1266       C  0.81371064  0.23766087  0.24648642     0.32700
C1267       C  0.74491333  0.25245936  0.22373147     0.01400
F1268       F  0.72158225  0.17040279  0.22027302    -0.13000
F1269       F  0.84219644  0.26061299  0.25530615    -0.13500
C1270       C  0.76928666  0.28594608  0.21583780     0.16300
C1271       C  0.75240729  0.30265431  0.20779316     0.25700
C1272       C  0.71049553  0.28605202  0.20736850    -0.40600
C1273       C  0.68623207  0.25320328  0.21563474     0.32600
C1274       C  0.70330441  0.23664608  0.22371465     0.14400
F1275       F  0.80949839  0.30138838  0.21543366    -0.13000
F1276       F  0.64587910  0.23677041  0.21586714    -0.13500
F1277       F  0.77724775  0.33402290  0.19998872    -0.15800
F1278       F  0.67910724  0.20490425  0.23148739    -0.14300
F1279       F  0.80448751  0.29340872  0.24324388    -0.14300
F1280       F  0.75816390  0.13599438  0.23242435    -0.15700
C1281       C  0.75953853  0.49868705  0.22403263     0.14300
C1282       C  0.74530558  0.52563471  0.22429908     0.01300
C1283       C  0.71314075  0.51832325  0.21620054     0.16300
C1284       C  0.69615461  0.48535944  0.20771322     0.25700
C1285       C  0.71093232  0.45868370  0.20711525    -0.40700
C1286       C  0.74252308  0.46549570  0.21555315     0.32700
C1287       C  0.76565552  0.56307928  0.23220827     0.01400
F1288       F  0.69933075  0.54431273  0.21605755    -0.13000
F1289       F  0.75704000  0.44011401  0.21562367    -0.13500
C1290       C  0.80537999  0.59248367  0.22945403     0.16300
C1291       C  0.82329600  0.62982198  0.23571207     0.25700
C1292       C  0.80174608  0.63940810  0.24475934    -0.40600
C1293       C  0.76259793  0.60831546  0.24819775     0.32600
C1294       C  0.74481221  0.57090516  0.24185690     0.14400
F1295       F  0.82628490  0.58586222  0.22013784    -0.13000
F1296       F  0.74098450  0.61288165  0.25768692    -0.13500
F1297       F  0.86156218  0.65758867  0.23241108    -0.15800
F1298       F  0.70682615  0.54222733  0.24507966    -0.14300
F1299       F  0.79013032  0.50470148  0.23195775    -0.14300
F1300       F  0.66634804  0.48078518  0.19965610    -0.15700
C1301       C  0.48318379  0.29069864  0.21992020     0.14300
C1302       C  0.47314673  0.25580039  0.22709658     0.01300
C1303       C  0.49823402  0.23949119  0.22629689     0.16300
C1304       C  0.53116642  0.25610486  0.21778342     0.25700
C1305       C  0.53982320  0.28960091  0.20993669    -0.40700
C1306       C  0.51618366  0.30753280  0.21148034     0.32700
C1307       C  0.43430426  0.23427500  0.23419989     0.01400
F1308       F  0.49022925  0.20680654  0.23355721    -0.13000
F1309       F  0.52329150  0.33994043  0.20421659    -0.13500
C1310       C  0.40549765  0.19490815  0.23059426     0.16300
C1311       C  0.36702408  0.17611872  0.23598231     0.25700
C1312       C  0.35557114  0.19669820  0.24479622    -0.40600
C1313       C  0.38609525  0.23477085  0.24939554     0.32600
C1314       C  0.42469202  0.25347815  0.24396200     0.14400
F1315       F  0.41397177  0.17521265  0.22131768    -0.13000
F1316       F  0.38003535  0.25356201  0.25952984    -0.13500
F1317       F  0.34035940  0.13792430  0.23217603    -0.15800
F1318       F  0.45287619  0.29048182  0.24829432    -0.14300
F1319       F  0.45944882  0.30705520  0.22042146    -0.14300
F1320       F  0.55413327  0.23893136  0.21707609    -0.15700
C1321       C  0.88180794  0.15660131  0.09446242     0.14300
C1322       C  0.87406756  0.11859415  0.09049784     0.01300
C1323       C  0.84707884  0.09902678  0.08023929     0.16300
C1324       C  0.82645057  0.11612183  0.07446838     0.25700
C1325       C  0.83170123  0.15313111  0.07910934    -0.40700
C1326       C  0.86136581  0.17382364  0.08876728     0.32700
C1327       C  0.89200115  0.09834877  0.09773575     0.01400
F1328       F  0.84077477  0.06317266  0.07575074    -0.13000
F1329       F  0.87003537  0.21073564  0.09298685    -0.13500
C1330       C  0.86701056  0.06222939  0.10439063     0.16300
C1331       C  0.88329702  0.04511529  0.11249848     0.25700
C1332       C  0.92510328  0.06382951  0.11415027    -0.40600
C1333       C  0.95018951  0.09935539  0.10710484     0.32600
C1334       C  0.93375114  0.11637688  0.09895445     0.14400
F1335       F  0.82657852  0.04462890  0.10361032    -0.13000
F1336       F  0.99063253  0.11784516  0.10817148    -0.13500
F1337       F  0.85787267  0.01144782  0.11932437    -0.15800
F1338       F  0.95858979  0.15078277  0.09236631    -0.14300
F1339       F  0.90801921  0.17643652  0.10429901    -0.14300
F1340       F  0.80294828  0.09660724  0.06409432    -0.15700
C1341       C  0.71392022  0.29594498  0.12459786     0.14300
C1342       C  0.71377595  0.25946047  0.12437027     0.01300
C1343       C  0.70346010  0.23607368  0.13583705     0.16300
C1344       C  0.69391751  0.24912770  0.14732053     0.25700
C1345       C  0.69541184  0.28621474  0.14763696    -0.40700
C1346       C  0.70523518  0.30939155  0.13615481     0.32700
C1347       C  0.72660063  0.24687736  0.11246628     0.01400
F1348       F  0.70397668  0.20120580  0.13604993    -0.13000
F1349       F  0.70535575  0.34460764  0.13604576    -0.13500
C1350       C  0.76457700  0.27258760  0.10695200     0.16300
C1351       C  0.77853080  0.25950275  0.09656753     0.25700
C1352       C  0.75481015  0.22062427  0.09149984    -0.40600
C1353       C  0.71658753  0.19512238  0.09675578     0.32600
C1354       C  0.70236145  0.20828600  0.10706880     0.14400
F1355       F  0.78911153  0.30961644  0.11209314    -0.13000
F1356       F  0.69366685  0.15700140  0.09220194    -0.13500
F1357       F  0.81615592  0.28398793  0.09193746    -0.15800
F1358       F  0.66517645  0.18313349  0.11192547    -0.14300
F1359       F  0.72210184  0.31838579  0.11357640    -0.14300
F1360       F  0.68458929  0.22620279  0.15826465    -0.15700
C1361       C  0.85085755  0.33819521  0.05021151     0.14300
C1362       C  0.88032191  0.34376381  0.04110126     0.01300
C1363       C  0.88766517  0.31227596  0.03882759     0.16300
C1364       C  0.86641534  0.27601641  0.04565790     0.25700
C1365       C  0.83777742  0.27062954  0.05518680    -0.40700
C1366       C  0.82993513  0.30210274  0.05725621     0.32700
C1367       C  0.90384998  0.38226722  0.03392420     0.01400
F1368       F  0.91515614  0.31646931  0.02978070    -0.13000
F1369       F  0.80306077  0.29876987  0.06638047    -0.13500
C1370       C  0.94569318  0.40484764  0.03531187     0.16300
C1371       C  0.96868770  0.43863379  0.02747620     0.25700
C1372       C  0.95023397  0.45076654  0.01821062    -0.40600
C1373       C  0.90823546  0.42907256  0.01714598     0.32600
C1374       C  0.88519530  0.39509856  0.02497229     0.14400
F1375       F  0.96430751  0.39371941  0.04415101    -0.13000
F1376       F  0.88972493  0.43959985  0.00807825    -0.13500
F1377       F  0.00912260  0.45947491  0.02885224    -0.15800
F1378       F  0.84487040  0.37354925  0.02335052    -0.14300
F1379       F  0.84312715  0.36817275  0.05255039    -0.14300
F1380       F  0.87325876  0.24582774  0.04263059    -0.15700
C1381       C  0.82693422  0.76702699  0.08585590     0.14300
C1382       C  0.86653909  0.78535760  0.09035735     0.01300
C1383       C  0.88863372  0.76652222  0.08790658     0.16300
C1384       C  0.87142579  0.72977836  0.08128176     0.25700
C1385       C  0.83172166  0.71119323  0.07641391    -0.40700
C1386       C  0.80949107  0.73022388  0.07920191     0.32700
C1387       C  0.88381122  0.82206542  0.09864730     0.01400
F1388       F  0.92616136  0.78222894  0.09282634    -0.13000
F1389       F  0.76983380  0.71206269  0.07649409    -0.13500
C1390       C  0.86509242  0.82182227  0.11044617     0.16300
C1391       C  0.88256684  0.85535770  0.11869857     0.25700
C1392       C  0.91948230  0.88965589  0.11543584    -0.40600
C1393       C  0.93810516  0.89003190  0.10360191     0.32600
C1394       C  0.92027621  0.85663938  0.09524292     0.14400
F1395       F  0.83070302  0.78839738  0.11427402    -0.13000
F1396       F  0.97330027  0.92292572  0.10005077    -0.13500
F1397       F  0.86428392  0.85350387  0.13021420    -0.15800
F1398       F  0.93861980  0.85800514  0.08379729    -0.14300
F1399       F  0.80444267  0.78403537  0.08835958    -0.14300
F1400       F  0.89292017  0.71103557  0.08073475    -0.15700
C1401       C  0.75742437  0.51375932  0.10282676     0.14300
C1402       C  0.73279518  0.51584837  0.11248361     0.01300
C1403       C  0.71963982  0.54343628  0.11109465     0.16300
C1404       C  0.73220920  0.56966506  0.10045720     0.25700
C1405       C  0.75799154  0.56856802  0.09104046    -0.40700
C1406       C  0.76978423  0.53985246  0.09211150     0.32700
C1407       C  0.72159351  0.49013959  0.12421404     0.01400
F1408       F  0.69579406  0.54593979  0.12030283    -0.13000
F1409       F  0.79485401  0.53844284  0.08315345    -0.13500
C1410       C  0.75111134  0.49400044  0.13300030     0.16300
C1411       C  0.74030153  0.47095158  0.14443398     0.25700
C1412       C  0.69964963  0.44381689  0.14729704    -0.40600
C1413       C  0.67029731  0.43966740  0.13829814     0.32600
C1414       C  0.68120126  0.46266538  0.12689988     0.14400
F1415       F  0.79036395  0.52091124  0.13065963    -0.13000
F1416       F  0.63097216  0.41257636  0.14032721    -0.13500
F1417       F  0.76958622  0.47587776  0.15280039    -0.15800
F1418       F  0.65228112  0.45779490  0.11837365    -0.14300
F1419       F  0.76984474  0.48678137  0.10388404    -0.14300
F1420       F  0.71958788  0.59650270  0.09940874    -0.15700
C1421       C  0.68036567  0.59110581  0.03260258     0.14300
C1422       C  0.64556259  0.55800284  0.03768336     0.01300
C1423       C  0.64727677  0.54116145  0.04962989     0.16300
C1424       C  0.68326741  0.55814759  0.05663543     0.25700
C1425       C  0.71781781  0.59237605  0.05179869    -0.40700
C1426       C  0.71623468  0.60821427  0.03960064     0.32700
C1427       C  0.60722698  0.54314442  0.03077694     0.01400
F1428       F  0.61381558  0.50922149  0.05469479    -0.13000
F1429       F  0.74943553  0.64028857  0.03446792    -0.13500
C1430       C  0.59351561  0.51118651  0.02188281     0.16300
C1431       C  0.56036018  0.50123708  0.01395148     0.25700
C1432       C  0.54027203  0.52288569  0.01495446    -0.40600
C1433       C  0.55317009  0.55378774  0.02426355     0.32600
C1434       C  0.58642095  0.56384247  0.03210472     0.14400
F1435       F  0.61335835  0.49090852  0.02047964    -0.13000
F1436       F  0.53397010  0.57474620  0.02555684    -0.13500
F1437       F  0.54926188  0.47199689  0.00481194    -0.15800
F1438       F  0.59919629  0.59467455  0.04072941    -0.14300
F1439       F  0.67927742  0.60728623  0.02094477    -0.14300
F1440       F  0.68379441  0.54244383  0.06844522    -0.15700
C1441       C  0.89997241  0.55169254  0.01890693     0.14300
C1442       C  0.90053202  0.54872299  0.03258812     0.01300
C1443       C  0.92409001  0.53451613  0.03823265     0.16300
C1444       C  0.94789749  0.52521829  0.03038864     0.25700
C1445       C  0.94684520  0.52765056  0.01667645    -0.40700
C1446       C  0.92200055  0.54035700  0.01105752     0.32700
C1447       C  0.87821339  0.56253395  0.04084530     0.01400
F1448       F  0.92438587  0.52998662  0.05137558    -0.13000
F1449       F  0.91944256  0.54241988  0.99787924    -0.13500
C1450       C  0.83773209  0.54938516  0.03827423     0.16300
C1451       C  0.81805179  0.56581320  0.04504716     0.25700
C1452       C  0.83809791  0.59496002  0.05480839    -0.40600
C1453       C  0.87795029  0.60657118  0.05783513     0.32600
C1454       C  0.89794844  0.59100179  0.05081145     0.14400
F1455       F  0.81728519  0.52089344  0.02905292    -0.13000
F1456       F  0.89769012  0.63304594  0.06763845    -0.13500
F1457       F  0.77996003  0.55442190  0.04159975    -0.15800
F1458       F  0.93716332  0.60502826  0.05344495    -0.14300
F1459       F  0.87923191  0.56707132  0.01309442    -0.14300
F1460       F  0.97318150  0.51554296  0.03626567    -0.15700
C1461       C  0.23018351  0.15641286  0.09088188     0.14300
C1462       C  0.20116124  0.11622500  0.08832322     0.01300
C1463       C  0.20983483  0.09475407  0.07911384     0.16300
C1464       C  0.24777228  0.11210646  0.07324806     0.25700
C1465       C  0.27826638  0.15168615  0.07655316    -0.40700
C1466       C  0.26772794  0.17408777  0.08489919     0.32700
C1467       C  0.16317821  0.09617798  0.09595234     0.01400
F1468       F  0.18147915  0.05657674  0.07585627    -0.13000
F1469       F  0.29481003  0.21299557  0.08785566    -0.13500
C1470       C  0.13866537  0.11313451  0.09680970     0.16300
C1471       C  0.10553548  0.09671601  0.10523440     0.25700
C1472       C  0.09593286  0.06263216  0.11296030    -0.40600
C1473       C  0.11964647  0.04470833  0.11158157     0.32600
C1474       C  0.15290522  0.06144425  0.10326336     0.14400
F1475       F  0.14714237  0.14605399  0.08959577    -0.13000
F1476       F  0.11193967  0.01187098  0.11870317    -0.13500
F1477       F  0.08339197  0.11478968  0.10594598    -0.15800
F1478       F  0.17641018  0.04481560  0.10290713    -0.14300
F1479       F  0.22309464  0.17811242  0.09978314    -0.14300
F1480       F  0.25344810  0.08975179  0.06429315    -0.15700
C1481       C  0.49933339  0.23367860  0.13370877     0.14300
C1482       C  0.49554982  0.26219128  0.12630110     0.01300
C1483       C  0.51436082  0.30213533  0.13068182     0.16300
C1484       C  0.53661822  0.31354130  0.14222647     0.25700
C1485       C  0.54135257  0.28534211  0.14960813    -0.40700
C1486       C  0.52210255  0.24509741  0.14521833     0.32700
C1487       C  0.47024504  0.25012323  0.11439397     0.01400
F1488       F  0.51158548  0.33041226  0.12364203    -0.13000
F1489       F  0.52475526  0.21655269  0.15212773    -0.13500
C1490       C  0.43737786  0.25587974  0.11384439     0.16300
C1491       C  0.41273059  0.24399531  0.10286152     0.25700
C1492       C  0.41988536  0.22532374  0.09223275    -0.40600
C1493       C  0.45358345  0.22076675  0.09255114     0.32600
C1494       C  0.47857509  0.23304592  0.10357713     0.14400
F1495       F  0.42839363  0.27200461  0.12415308    -0.13000
F1496       F  0.46134359  0.20288991  0.08248193    -0.13500
F1497       F  0.38149530  0.25050787  0.10267258    -0.15800
F1498       F  0.51081358  0.22816044  0.10372775    -0.14300
F1499       F  0.48020112  0.19452852  0.12994536    -0.14300
F1500       F  0.55409872  0.35257848  0.14598625    -0.15700
C1501       C  0.44666380  0.33699531  0.04865615     0.14300
C1502       C  0.42661095  0.33830731  0.03737235     0.01300
C1503       C  0.39022504  0.30383530  0.03389865     0.16300
C1504       C  0.37433242  0.26881398  0.04142501     0.25700
C1505       C  0.39396057  0.26752851  0.05280888    -0.40700
C1506       C  0.43041429  0.30195779  0.05632771     0.32700
C1507       C  0.44266513  0.37540181  0.02923535     0.01400
F1508       F  0.36944111  0.30431225  0.02330701    -0.13000
F1509       F  0.44968991  0.30219625  0.06741449    -0.13500
C1510       C  0.44732573  0.37349445  0.01565898     0.16300
C1511       C  0.45745260  0.40680015  0.00769446     0.25700
C1512       C  0.46393352  0.44303776  0.01314117    -0.40600
C1513       C  0.46080187  0.44554053  0.02676353     0.32600
C1514       C  0.45030757  0.41205705  0.03474147     0.14400
F1515       F  0.44167385  0.33909890  0.01007829    -0.13000
F1516       F  0.46610983  0.47986524  0.03228462    -0.13500
F1517       F  0.46092479  0.40368405  0.99460789    -0.15800
F1518       F  0.44569068  0.41491655  0.04776849    -0.14300
F1519       F  0.48209173  0.36953982  0.05221420    -0.14300
F1520       F  0.33984579  0.23587390  0.03743200    -0.15700
C1521       C  0.57472023  0.06459989  0.03413944     0.14300
C1522       C  0.61132958  0.09404124  0.02863548     0.01300
C1523       C  0.61325752  0.10203592  0.01518467     0.16300
C1524       C  0.57966893  0.07988589  0.00728216     0.25700
C1525       C  0.54338856  0.04953300  0.01269000    -0.40700
C1526       C  0.54100139  0.04243605  0.02621864     0.32700
C1527       C  0.64805966  0.11460046  0.03673794     0.01400
F1528       F  0.64788738  0.13106733  0.00967965    -0.13000
F1529       F  0.50666251  0.01270270  0.03164808    -0.13500
C1530       C  0.68122712  0.11070371  0.03365921     0.16300
C1531       C  0.71547494  0.12876668  0.04150102     0.25700
C1532       C  0.71720984  0.15099999  0.05263308    -0.40600
C1533       C  0.68421120  0.15545243  0.05556933     0.32600
C1534       C  0.64996124  0.13738616  0.04769346     0.14400
F1535       F  0.68011703  0.08861921  0.02317742    -0.13000
F1536       F  0.68443715  0.17620403  0.06628486    -0.13500
F1537       F  0.74718624  0.12494599  0.03808243    -0.15800
F1538       F  0.61863936  0.14225994  0.05073640    -0.14300
F1539       F  0.57218488  0.05595103  0.04708196    -0.14300
F1540       F  0.58257679  0.08779056  0.99427233    -0.15700
C1541       C  0.41945131  0.13852954  0.03341284     0.14300
C1542       C  0.42652415  0.10972432  0.03926347     0.01300
C1543       C  0.41931918  0.10207609  0.05273273     0.16300
C1544       C  0.40431327  0.12204438  0.06011370     0.25700
C1545       C  0.39672476  0.15025008  0.05418819    -0.40700
C1546       C  0.40489494  0.15879787  0.04084819     0.32700
C1547       C  0.43975294  0.08659623  0.03118983     0.01400
F1548       F  0.42664350  0.07511385  0.05871601    -0.13000
F1549       F  0.39714459  0.18553644  0.03491790    -0.13500
C1550       C  0.47446691  0.10661954  0.02344510     0.16300
C1551       C  0.48507822  0.08497769  0.01503075     0.25700
C1552       C  0.46191928  0.04268431  0.01451861    -0.40600
C1553       C  0.42777016  0.02263162  0.02255092     0.32600
C1554       C  0.41660254  0.04435833  0.03069780     0.14400
F1555       F  0.49786750  0.14730774  0.02390639    -0.13000
F1556       F  0.40474187  0.98186938  0.02233815    -0.13500
F1557       F  0.51692002  0.10559089  0.00694963    -0.15800
F1558       F  0.38223703  0.02416486  0.03773360    -0.14300
F1559       F  0.42496419  0.14573421  0.02037424    -0.14300
F1560       F  0.39672320  0.11356260  0.07302882    -0.15700
C1561       C  0.54829931  0.75633818  0.74794833     0.14300
C1562       C  0.53986835  0.77757351  0.75727140     0.01300
C1563       C  0.56907596  0.81723423  0.76024587     0.16300
C1564       C  0.60668075  0.83503443  0.75435446     0.25700
C1565       C  0.61668804  0.81335651  0.74548677    -0.40700
C1566       C  0.58606394  0.77398137  0.74198401     0.32700
C1567       C  0.50176139  0.75788006  0.76462812     0.01400
F1568       F  0.56173038  0.83831404  0.76932377    -0.13000
F1569       F  0.59125850  0.75231244  0.73264111    -0.13500
C1570       C  0.49333421  0.72618578  0.77318732     0.16300
C1571       C  0.46036766  0.71099617  0.78156770     0.25700
C1572       C  0.43504554  0.72729098  0.78155603    -0.40600
C1573       C  0.44269305  0.75800469  0.77252929     0.32600
C1574       C  0.47581219  0.77315713  0.76416169     0.14400
F1575       F  0.51846929  0.71150734  0.77397928    -0.13000
F1576       F  0.41850200  0.77380987  0.77189020    -0.13500
F1577       F  0.45472500  0.68185266  0.79019433    -0.15800
F1578       F  0.48310412  0.80337733  0.75577025    -0.14300
F1579       F  0.51975790  0.71832236  0.74459800    -0.14300
F1580       F  0.63396146  0.87357198  0.75765194    -0.15700
C1581       C  0.26229323  0.52697675  0.76277301     0.14300
C1582       C  0.22180882  0.49691487  0.76406077     0.01300
C1583       C  0.19873677  0.50026472  0.77399978     0.16300
C1584       C  0.21608532  0.53242734  0.78277896     0.25700
C1585       C  0.25701346  0.56199639  0.78181093    -0.40700
C1586       C  0.27982047  0.55921178  0.77158443     0.32700
C1587       C  0.20446523  0.45989958  0.75601548     0.01400
F1588       F  0.15979546  0.47114911  0.77563843    -0.13000
F1589       F  0.31905850  0.58764234  0.77010307    -0.13500
C1590       C  0.21919835  0.43371174  0.75728587     0.16300
C1591       C  0.19971778  0.39606547  0.75125331     0.25700
C1592       C  0.16449350  0.38310921  0.74379342    -0.40600
C1593       C  0.15141125  0.41104344  0.74187756     0.32600
C1594       C  0.17108869  0.44873272  0.74803269     0.14400
F1595       F  0.25118013  0.44358684  0.76508734    -0.13000
F1596       F  0.11939403  0.40273267  0.73441694    -0.13500
F1597       F  0.21418670  0.37110605  0.75337725    -0.15800
F1598       F  0.15691258  0.47414565  0.74642247    -0.14300
F1599       F  0.28493049  0.52476819  0.75305807    -0.14300
F1600       F  0.19321543  0.53335586  0.79266461    -0.15700
C1601       C  0.22615383  0.72611845  0.76156253     0.14300
C1602       C  0.23795873  0.76705042  0.76175196     0.01300
C1603       C  0.26866170  0.79312735  0.77027899     0.16300
C1604       C  0.28572591  0.77823613  0.77897780     0.25700
C1605       C  0.27206348  0.73675085  0.77944705    -0.40700
C1606       C  0.24298704  0.71105088  0.77032661     0.32700
C1607       C  0.21592253  0.78217552  0.75408702     0.01400
F1608       F  0.28038538  0.83275836  0.77079266    -0.13000
F1609       F  0.23028058  0.67116602  0.77001687    -0.13500
C1610       C  0.17487226  0.76620238  0.75620801     0.16300
C1611       C  0.15519496  0.78450077  0.75071251     0.25700
C1612       C  0.17605489  0.81978082  0.74302037    -0.40600
C1613       C  0.21696965  0.83387166  0.74018972     0.32600
C1614       C  0.23638394  0.81520171  0.74569496     0.14400
F1615       F  0.15423937  0.73434361  0.76434753    -0.13000
F1616       F  0.23953151  0.86618794  0.73253145    -0.13500
F1617       F  0.11585338  0.76894327  0.75362487    -0.15800
F1618       F  0.27584839  0.83027513  0.74311642    -0.14300
F1619       F  0.19760388  0.70055901  0.75308150    -0.14300
F1620       F  0.31381989  0.80422354  0.78749524    -0.15700
C1621       C  0.14117726  0.26046927  0.89574260     0.14300
C1622       C  0.10113244  0.23083929  0.89793445     0.01300
C1623       C  0.07878935  0.23832128  0.90705727     0.16300
C1624       C  0.09544630  0.27539416  0.91353594     0.25700
C1625       C  0.13518624  0.30675135  0.91079992    -0.40700
C1626       C  0.15796038  0.29781038  0.90204674     0.32700
C1627       C  0.08163708  0.19349578  0.88995638     0.01400
F1628       F  0.04018745  0.20965467  0.90955234    -0.13000
F1629       F  0.19636366  0.32611325  0.89911407    -0.13500
C1630       C  0.09306962  0.16445463  0.89102848     0.16300
C1631       C  0.07547954  0.13017222  0.88300333     0.25700
C1632       C  0.04603674  0.12431605  0.87376284    -0.40600
C1633       C  0.03421420  0.15324900  0.87293527     0.32600
C1634       C  0.05189442  0.18741113  0.88091273     0.14400
F1635       F  0.12122273  0.16930361  0.89987287    -0.13000
F1636       F  0.00689182  0.14961196  0.86393295    -0.13500
F1637       F  0.08713590  0.10266019  0.88431724    -0.15800
F1638       F  0.04101489  0.21548590  0.87945750    -0.14300
F1639       F  0.16353770  0.25400794  0.88695875    -0.14300
F1640       F  0.07155163  0.27958039  0.92219756    -0.15700
C1641       C  0.22624861  0.56045827  0.86273332     0.14300
C1642       C  0.23786967  0.53222812  0.86534100     0.01300
C1643       C  0.26142894  0.52640659  0.85620918     0.16300
C1644       C  0.27306395  0.54830540  0.84456105     0.25700
C1645       C  0.26137372  0.57663380  0.84182944    -0.40700
C1646       C  0.23798714  0.58261631  0.85112135     0.32700
C1647       C  0.22377139  0.50710189  0.87722878     0.01400
F1648       F  0.27231932  0.49864252  0.85844164    -0.13000
F1649       F  0.22718342  0.61057028  0.84916131    -0.13500
C1650       C  0.18284079  0.47897106  0.87880355     0.16300
C1651       C  0.16983026  0.45137185  0.88908744     0.25700
C1652       C  0.19751725  0.45186618  0.89802743    -0.40600
C1653       C  0.23815763  0.48156045  0.89692285     0.32600
C1654       C  0.25127461  0.50882769  0.88650502     0.14400
F1655       F  0.15574514  0.47696097  0.86999725    -0.13000
F1656       F  0.26540709  0.48269963  0.90547642    -0.13500
F1657       F  0.13024790  0.42361194  0.89019464    -0.15800
F1658       F  0.29091002  0.53625206  0.88525249    -0.14300
F1659       F  0.20388524  0.56688109  0.87152706    -0.14300
F1660       F  0.29522034  0.54117685  0.83588825    -0.15700
C1661       C  0.36765489  0.50623763  0.96736096     0.14300
C1662       C  0.35534519  0.47335362  0.95882896     0.01300
C1663       C  0.37608067  0.45226020  0.95902828     0.16300
C1664       C  0.40789375  0.46332405  0.96765216     0.25700
C1665       C  0.41927153  0.49519009  0.97648438    -0.40700
C1666       C  0.39904762  0.51676881  0.97620969     0.32700
C1667       C  0.31965407  0.45927741  0.95024589     0.01400
F1668       F  0.36443170  0.41968716  0.95124936    -0.13000
F1669       F  0.40861411  0.54700255  0.98484494    -0.13500
C1670       C  0.32171478  0.45182167  0.93686762     0.16300
C1671       C  0.28705676  0.43384275  0.92917272     0.25700
C1672       C  0.25004586  0.42420711  0.93460561    -0.40600
C1673       C  0.24811753  0.43336104  0.94775245     0.32600
C1674       C  0.28248017  0.45025159  0.95556548     0.14400
F1675       F  0.35733222  0.46184986  0.93126072    -0.13000
F1676       F  0.21258397  0.42451527  0.95315502    -0.13500
F1677       F  0.28960226  0.42594868  0.91640192    -0.15800
F1678       F  0.27899682  0.45608068  0.96846368    -0.14300
F1679       F  0.34902080  0.52792422  0.96723016    -0.14300
F1680       F  0.42735657  0.44243342  0.96751558    -0.15700
C1681       C  0.10089684  0.41832965  0.95821372     0.14300
C1682       C  0.10022168  0.45311236  0.95460939     0.01300
C1683       C  0.11603039  0.47102265  0.94242149     0.16300
C1684       C  0.13214812  0.45437414  0.93397724     0.25700
C1685       C  0.13243565  0.41937477  0.93754479    -0.40700
C1686       C  0.11677891  0.40156885  0.94974836     0.32700
C1687       C  0.08209377  0.46993587  0.96345616     0.01400
F1688       F  0.11612702  0.50484062  0.93874943    -0.13000
F1689       F  0.11760903  0.36836611  0.95359191    -0.13500
C1690       C  0.09655363  0.48156241  0.97625693     0.16300
C1691       C  0.07748269  0.49451403  0.98490750     0.25700
C1692       C  0.04400305  0.49656493  0.98085223    -0.40600
C1693       C  0.03011229  0.48590181  0.96797514     0.32600
C1694       C  0.04898572  0.47266496  0.95934428     0.14400
F1695       F  0.12900796  0.48009183  0.98039368    -0.13000
F1696       F  0.99710655  0.48650383  0.96395748    -0.13500
F1697       F  0.09139324  0.50468765  0.99731014    -0.15800
F1698       F  0.03379317  0.46072224  0.94715081    -0.14300
F1699       F  0.08547924  0.40014031  0.96986123    -0.14300
F1700       F  0.14654277  0.47188166  0.92217211    -0.15700
C1701       C  0.83376075  0.95746087  0.89054402     0.14300
C1702       C  0.80270867  0.91719004  0.88937378     0.01300
C1703       C  0.80546571  0.89287629  0.87969731     0.16300
C1704       C  0.83871798  0.90839412  0.87140983     0.25700
C1705       C  0.86976895  0.94880354  0.87250104    -0.40700
C1706       C  0.86688049  0.97320978  0.88213970     0.32700
C1707       C  0.76665449  0.90063208  0.89785533     0.01400
F1708       F  0.77516084  0.85438035  0.87794625    -0.13000
F1709       F  0.89633860  0.01222312  0.88353105    -0.13500
C1710       C  0.74243188  0.91783490  0.89782151     0.16300
C1711       C  0.70590894  0.89941126  0.90452429     0.25700
C1712       C  0.69240852  0.86312399  0.91157859    -0.40600
C1713       C  0.71778266  0.84662737  0.91177022     0.32600
C1714       C  0.75448850  0.86553749  0.90514708     0.14400
F1715       F  0.75282556  0.95115161  0.89054618    -0.13000
F1716       F  0.70668571  0.81068553  0.91733778    -0.13500
F1717       F  0.68239302  0.91585502  0.90331048    -0.15800
F1718       F  0.77760973  0.84846238  0.90542412    -0.14300
F1719       F  0.83211324  0.98148744  0.89989322    -0.14300
F1720       F  0.83959015  0.88428439  0.86191975    -0.15700
C1721       C  0.49231935  0.78293385  0.88628030     0.14300
C1722       C  0.49533300  0.75950362  0.87634191     0.01300
C1723       C  0.52489881  0.74894410  0.87718624     0.16300
C1724       C  0.55191081  0.76263640  0.88758162     0.25700
C1725       C  0.54961595  0.78688544  0.89739410    -0.40700
C1726       C  0.51913393  0.79631606  0.89679837     0.32700
C1727       C  0.46910100  0.74749303  0.86472867     0.01400
F1728       F  0.52849200  0.72652705  0.86765984    -0.13000
F1729       F  0.51650349  0.82006303  0.90603023    -0.13500
C1730       C  0.47260842  0.77669365  0.85581009     0.16300
C1731       C  0.45005370  0.76530986  0.84429891     0.25700
C1732       C  0.42330165  0.72430131  0.84150231    -0.40600
C1733       C  0.41960000  0.69515061  0.85062863     0.32600
C1734       C  0.44235929  0.70671252  0.86208832     0.14400
F1735       F  0.49880796  0.81629294  0.85809177    -0.13000
F1736       F  0.39344368  0.65537438  0.84863680    -0.13500
F1737       F  0.45507375  0.79453684  0.83581160    -0.15800
F1738       F  0.43809656  0.67803999  0.87069749    -0.14300
F1739       F  0.46373426  0.79322905  0.88569060    -0.14300
F1740       F  0.58060480  0.75245394  0.88800627    -0.15700
C1741       C  0.51259077  0.60744418  0.95743425     0.14300
C1742       C  0.52100692  0.64450592  0.96277422     0.01300
C1743       C  0.51525218  0.64686051  0.97623645     0.16300
C1744       C  0.50260192  0.61314123  0.98427025     0.25700
C1745       C  0.49522004  0.57633665  0.97899288    -0.40700
C1746       C  0.50000866  0.57372611  0.96547401     0.32700
C1747       C  0.53848896  0.68117387  0.95445772     0.01400
F1748       F  0.52227943  0.68199428  0.98162097    -0.13000
F1749       F  0.49453913  0.53911167  0.96014789    -0.13500
C1750       C  0.51837304  0.68272909  0.94326416     0.16300
C1751       C  0.53644039  0.71618128  0.93492751     0.25700
C1752       C  0.57487322  0.74898110  0.93770291    -0.40600
C1753       C  0.59432246  0.74789660  0.94918147     0.32600
C1754       C  0.57646792  0.71423080  0.95738716     0.14400
F1755       F  0.48120399  0.65170958  0.94038135    -0.13000
F1756       F  0.63045034  0.77966100  0.95261561    -0.13500
F1757       F  0.51683036  0.71570437  0.92389684    -0.15800
F1758       F  0.59684753  0.71348275  0.96805166    -0.14300
F1759       F  0.51855053  0.60444041  0.94451430    -0.14300
F1760       F  0.49792048  0.61647934  0.99726804    -0.15700
C1761       C  0.54660789  0.90637896  0.93632494     0.14300
C1762       C  0.53997349  0.89789257  0.94977626     0.01300
C1763       C  0.55196832  0.87264973  0.95555391     0.16300
C1764       C  0.57035209  0.85635994  0.94803161     0.25700
C1765       C  0.57752991  0.86549181  0.93469185    -0.40700
C1766       C  0.56557265  0.89052009  0.92886060     0.32700
C1767       C  0.52312009  0.91741683  0.95796972     0.01400
F1768       F  0.54702873  0.86479606  0.96856665    -0.13000
F1769       F  0.57206520  0.89935230  0.91593440    -0.13500
C1770       C  0.48937299  0.89440661  0.96593847     0.16300
C1771       C  0.47629419  0.91332323  0.97464829     0.25700
C1772       C  0.49632536  0.95556014  0.97533969    -0.40600
C1773       C  0.52905637  0.97843519  0.96699176     0.32600
C1774       C  0.54247678  0.95958928  0.95846576     0.14400
F1775       F  0.46956793  0.85359983  0.96545673    -0.13000
F1776       F  0.54875436  0.01925667  0.96735577    -0.13500
F1777       F  0.44537988  0.89039101  0.98283793    -0.15800
F1778       F  0.57566264  0.98263286  0.95113574    -0.14300
F1779       F  0.53451091  0.92985844  0.93042316    -0.14300
F1780       F  0.58188197  0.83224580  0.95381001    -0.15700
C1781       C  0.09606141  0.95184999  0.88818942     0.14300
C1782       C  0.07056116  0.91359731  0.89356117     0.01300
C1783       C  0.02925916  0.89460550  0.89101016     0.16300
C1784       C  0.01415085  0.91214504  0.88250163     0.25700
C1785       C  0.04006991  0.94938877  0.87637866    -0.40700
C1786       C  0.08108062  0.96964861  0.87977780     0.32700
C1787       C  0.08774764  0.89200336  0.90056388     0.01400
F1788       F  0.00356892  0.85841721  0.89651538    -0.13000
F1789       F  0.10742096  0.00592585  0.87447081    -0.13500
C1790       C  0.11366684  0.90947059  0.91125264     0.16300
C1791       C  0.13367633  0.89118055  0.91671252     0.25700
C1792       C  0.12854453  0.85488286  0.91144170    -0.40600
C1793       C  0.09972643  0.83606769  0.90142501     0.32600
C1794       C  0.08029721  0.85463025  0.89593998     0.14400
F1795       F  0.11955649  0.94439376  0.91647026    -0.13000
F1796       F  0.09118179  0.79983556  0.89655479    -0.13500
F1797       F  0.15661268  0.90885629  0.92736345    -0.15800
F1798       F  0.05549575  0.83675651  0.88562308    -0.14300
F1799       F  0.13611102  0.97102777  0.89040456    -0.14300
F1800       F  0.97422345  0.89192640  0.88002076    -0.15700
C1801       C  0.28761826  0.76347740  0.86219103     0.14300
C1802       C  0.24943461  0.75909902  0.86284501     0.01300
C1803       C  0.22420246  0.74445407  0.85186911     0.16300
C1804       C  0.23661778  0.73366511  0.84052742     0.25700
C1805       C  0.27479334  0.73791132  0.83986814    -0.40700
C1806       C  0.30026628  0.75314920  0.85080027     0.32700
C1807       C  0.23572790  0.76963874  0.87494425     0.01400
F1808       F  0.18759265  0.74098870  0.85209192    -0.13000
F1809       F  0.33674629  0.75629096  0.85069376    -0.13500
C1810       C  0.25728713  0.80884482  0.88008537     0.16300
C1811       C  0.24272773  0.81939913  0.89096811     0.25700
C1812       C  0.20653188  0.79092339  0.89686830    -0.40600
C1813       C  0.18536543  0.75165740  0.89190978     0.32600
C1814       C  0.20002214  0.74094552  0.88111184     0.14400
F1815       F  0.29145040  0.83736831  0.87420609    -0.13000
F1816       F  0.14935888  0.72432810  0.89706023    -0.13500
F1817       F  0.26321408  0.85776885  0.89549401    -0.15800
F1818       F  0.17897475  0.70268371  0.87652214    -0.14300
F1819       F  0.31218691  0.77652251  0.87274677    -0.14300
F1820       F  0.21143787  0.71947006  0.83013551    -0.15700
C1821       C  0.11398995  0.67009341  0.94008781     0.14300
C1822       C  0.08878704  0.66699925  0.95042426     0.01300
C1823       C  0.08057158  0.69802867  0.95239471     0.16300
C1824       C  0.09767055  0.73190791  0.94430668     0.25700
C1825       C  0.12306028  0.73533116  0.93388543    -0.40700
C1826       C  0.13092558  0.70386994  0.93187288     0.32700
C1827       C  0.07137816  0.63194261  0.95938272     0.01400
F1828       F  0.05692454  0.69612313  0.96248556    -0.13000
F1829       F  0.15459834  0.70534039  0.92188872    -0.13500
C1830       C  0.09613015  0.62493233  0.96765358     0.16300
C1831       C  0.07926727  0.59446389  0.97713115     0.25700
C1832       C  0.03744408  0.57058043  0.97841335    -0.40600
C1833       C  0.01283725  0.57679628  0.96983236     0.32600
C1834       C  0.02963296  0.60714438  0.96040104     0.14400
F1835       F  0.13655077  0.64898897  0.96700215    -0.13000
F1836       F  0.97235720  0.55381633  0.97078110    -0.13500
F1837       F  0.10367846  0.58970882  0.98548495    -0.15800
F1838       F  0.00511367  0.61289166  0.95239694    -0.14300
F1839       F  0.12185389  0.64014766  0.93787152    -0.14300
F1840       F  0.09081158  0.76219884  0.94714567    -0.15700
C1841       C  0.27631951  0.88542683  0.95711416     0.14300
C1842       C  0.30969873  0.88250153  0.95349548     0.01300
C1843       C  0.30831526  0.86263605  0.94184454     0.16300
C1844       C  0.27456592  0.84693418  0.93375907     0.25700
C1845       C  0.24152751  0.85080754  0.93719437    -0.40700
C1846       C  0.24254208  0.86968010  0.94906376     0.32700
C1847       C  0.34652540  0.90208719  0.96158246     0.01400
F1848       F  0.33978880  0.85860227  0.93827443    -0.13000
F1849       F  0.21063452  0.87253187  0.95295998    -0.13500
C1850       C  0.34514943  0.89176489  0.97481641     0.16300
C1851       C  0.37861733  0.91361674  0.98281801     0.25700
C1852       C  0.41416075  0.94586216  0.97769993    -0.40600
C1853       C  0.41613988  0.95513269  0.96434725     0.32600
C1854       C  0.38256814  0.93338480  0.95634526     0.14400
F1855       F  0.31112972  0.86090691  0.98002979    -0.13000
F1856       F  0.44983951  0.98662065  0.95922004    -0.13500
F1857       F  0.37624030  0.90374981  0.99565190    -0.15800
F1858       F  0.38455986  0.94432175  0.94363790    -0.14300
F1859       F  0.27689114  0.90460238  0.96829894    -0.14300
F1860       F  0.27494006  0.82927936  0.92234371    -0.15700
loop_ 
_geom_bond_atom_site_label_1 
_geom_bond_atom_site_label_2 
_geom_bond_distance 
_geom_bond_site_symmetry_2 
_ccdc_geom_bond_type 
C1            C2   1.538       .  S
C1            C7   1.537       .  S
C1            C5   1.551       .  S
C1         C1792   1.543       .  S
C2            H9   1.086       .  S
C2            C3   1.369       .  D
C3            C4   1.540       .  S
C3         C1825   1.495       .  S
C4            C8   1.537       .  S
C4            C6   1.537       .  S
C4           H10   1.108       .  S
C5           H11   1.079       .  S
C5            C6   1.372       .  D
C6         C1845   1.489       .  S
C7           H12   1.087       .  S
C7            C8   1.359       .  D
C8         C1812   1.475       .  S
C13          C14   1.544       .  S
C13          C19   1.533       .  S
C13          C17   1.550       .  S
C13        C1712   1.541       .  S
C14          H21   1.086       .  S
C14          C15   1.366       .  D
C15          C16   1.532       .  S
C15        C1765   1.473       .  S
C16          C20   1.536       .  S
C16          C18   1.538       .  S
C16          H22   1.110       .  S
C17          H23   1.078       .  S
C17          C18   1.372       .  D
C18        C1752   1.492       .  S
C19          H24   1.087       .  S
C19          C20   1.361       .  D
C20        C1725   1.481       .  S
C25          C26   1.544       .  S
C25          C31   1.538       .  S
C25          C29   1.553       .  S
C25        C1625   1.548       .  S
C26          H33   1.086       .  S
C26          C27   1.367       .  D
C27          C28   1.532       .  S
C27        C1672   1.477       .  S
C28          C32   1.532       .  S
C28          C30   1.532       .  S
C28          H34   1.111       .  S
C29          H35   1.077       .  S
C29          C30   1.369       .  D
C30        C1685   1.483       .  S
C31          H36   1.087       .  S
C31          C32   1.363       .  D
C32        C1652   1.477       .  S
Fe37         O53   2.060       .  S
Fe37         O43   2.069       .  S
Fe37         O50   2.066       .  S
Fe37         O42   2.068       .  S
Fe37         O48   1.966       .  S
Fe38         O41   2.059       .  S
Fe38         O45   2.072       .  S
Fe38         O49   2.065       .  S
Fe38         O54   2.079       .  S
Fe38         O48   1.967       .  S
Fe39         O57   2.071       .  S
Fe39         O44   2.057       .  S
Fe39         O51   2.053       .  S
Fe39         O40   2.070       .  S
Fe39         O48   1.967       .  S
O40          C47   1.270       .  A
O41          C55   1.266       .  A
O42          C47   1.269       .  A
O43          C46   1.270       .  A
O44          C56   1.269       .  A
O45          C58   1.270       .  A
C46          O51   1.267       .  A
C46        C1645   1.484       .  S
C47        C1585   1.485       .  S
O49          C52   1.270       .  A
O50          C52   1.270       .  A
C52        C1572   1.486       .  S
O53          C58   1.268       .  A
O54          C56   1.273       .  A
C55          O57   1.268       .  A
C55        C1805   1.481       .  S
C56        C1605   1.486       .  S
C58        C1732   1.489       .  S
C59        C1772   1.486       .  S
C59          C60   1.413       .  A
C59          C64   1.403   1_565  A
C60        C1852   1.483       .  S
C60          C61   1.405       .  A
C61          C62   1.407   1_566  A
C61          H66   1.084       .  S
C62        C1552   1.492       .  S
C62          C63   1.417       .  A
C63        C1525   1.485       .  S
C63          C64   1.404   1_554  A
C64          H65   1.085       .  S
C67          C68   1.538       .  S
C67          C73   1.534       .  S
C67          C71   1.546       .  S
C67        C1465   1.541       .  S
C68          H75   1.086       .  S
C68          C69   1.369       .  D
C69          C70   1.542       .  S
C69        C1505   1.491       .  S
C70          C74   1.542       .  S
C70          C72   1.539       .  S
C70          H76   1.110       .  S
C71          H77   1.079       .  S
C71          C72   1.367       .  D
C72        C1545   1.478       .  S
C73          H78   1.087       .  S
C73          C74   1.362       .  D
C74        C1492   1.487       .  S
C79          C80   1.544       .  S
C79          C85   1.530       .  S
C79          C83   1.544       .  S
C79        C1385   1.538       .  S
C80          H87   1.084       .  S
C80          C81   1.370       .  D
C81          C82   1.540       .  S
C81        C1452   1.489       .  S
C82          C86   1.531       .  S
C82          C84   1.538       .  S
C82          H88   1.110       .  S
C83          H89   1.084       .  S
C83          C84   1.370       .  D
C84        C1425   1.482       .  S
C85          H90   1.087       .  S
C85          C86   1.358       .  D
C86        C1405   1.474       .  S
C91          C92   1.548       .  S
C91          C97   1.539       .  S
C91          C95   1.536       .  S
C91        C1325   1.541       .  S
C92          H99   1.079       .  S
C92          C93   1.370       .  D
C93          C94   1.538       .  S
C93        C1532   1.489       .  S
C94          C98   1.537       .  S
C94          C96   1.542       .  S
C94         H100   1.108       .  S
C95         H101   1.085       .  S
C95          C96   1.369       .  D
C96        C1365   1.496       .  S
C97         H102   1.087       .  S
C97          C98   1.361       .  D
C98        C1352   1.475       .  S
Fe103       O119   2.081       .  S
Fe103       O109   2.068       .  S
Fe103       O116   2.064       .  S
Fe103       O108   2.067       .  S
Fe103       O114   1.978       .  S
Fe104       O107   2.061       .  S
Fe104       O111   2.069       .  S
Fe104       O115   2.053       .  S
Fe104       O120   2.062       .  S
Fe104       O114   1.972       .  S
Fe105       O123   2.081       .  S
Fe105       O110   2.072       .  S
Fe105       O117   2.070       .  S
Fe105       O106   2.075       .  S
Fe105       O114   1.981       .  S
O106        C113   1.270       .  A
O107        C121   1.269       .  A
O108        C113   1.269       .  A
O109        C112   1.270       .  A
O110        C122   1.269       .  A
O111        C124   1.271       .  A
C112        O117   1.270       .  A
C112       C1272   1.493       .  S
C113       C1345   1.479       .  S
O115        C118   1.265       .  A
O116        C118   1.266       .  A
C118       C1412   1.482       .  S
O119        C124   1.273       .  A
O120        C122   1.268       .  A
C121        O123   1.273       .  A
C121       C1305   1.491       .  S
C122       C1485   1.493       .  S
C124       C1285   1.494       .  S
C125       C1692   1.482       .  S
C125        C126   1.411       .  A
C125        C130   1.404   1_556  A
C126       C1832   1.485       .  S
C126        C127   1.403   1_455  A
C127        C128   1.407   1_556  A
C127        H132   1.084       .  S
C128       C1445   1.494       .  S
C128        C129   1.418       .  A
C129       C1372   1.486       .  S
C129        C130   1.407   1_655  A
C130        H131   1.085       .  S
C133       C1745   1.490       .  S
C133        C134   1.416       .  A
C133        C138   1.405       .  A
C134       C1665   1.488       .  S
C134        C135   1.408       .  A
C135        C136   1.405   1_556  A
C135        H140   1.084       .  S
C136       C1512   1.490       .  S
C136        C137   1.413       .  A
C137       C1432   1.484       .  S
C137        C138   1.406   1_554  A
C138        H139   1.084       .  S
C141        C142   1.538   1_655  S
C141        C147   1.537   1_655  S
C141        C145   1.549       .  S
C141       C1185   1.545       .  S
C142        H149   1.086   1_455  S
C142        C143   1.369       .  D
C143        C144   1.543       .  S
C143       C1225   1.495       .  S
C144        C148   1.541       .  S
C144        C146   1.541       .  S
C144        H150   1.108       .  S
C145        H151   1.079       .  S
C145        C146   1.368   1_655  D
C146       C1245   1.482       .  S
C147        H152   1.086       .  S
C147        C148   1.364       .  D
C148       C1205   1.495       .  S
C153        C154   1.539       .  S
C153        C159   1.534       .  S
C153        C157   1.552       .  S
C153       C1112   1.541       .  S
C154        H161   1.086       .  S
C154        C155   1.369       .  D
C155        C156   1.541       .  S
C155       C1152   1.492       .  S
C156        C160   1.537       .  S
C156        C158   1.534       .  S
C156        H162   1.110       .  S
C157        H163   1.079       .  S
C157        C158   1.370       .  D
C158       C1172   1.480       .  S
C159        H164   1.087       .  S
C159        C160   1.359       .  D
C160       C1132   1.475       .  S
C165        C166   1.539   1_545  S
C165        C171   1.532   1_545  S
C165        C169   1.546   1_545  S
C165       C1025   1.543       .  S
C166        H173   1.085   1_565  S
C166        C167   1.373       .  D
C167        C168   1.546       .  S
C167       C1072   1.498       .  S
C168        C172   1.537       .  S
C168        C170   1.541       .  S
C168        H174   1.108       .  S
C169        H175   1.076   1_565  S
C169        C170   1.371       .  D
C170       C1092   1.492       .  S
C171        H176   1.087       .  S
C171        C172   1.359       .  D
C172       C1052   1.483       .  S
Fe177       O193   2.059       .  S
Fe177       O183   2.071       .  S
Fe177       O190   2.071       .  S
Fe177       O182   2.064       .  S
Fe177       O188   1.977       .  S
Fe178       O181   2.064       .  S
Fe178       O185   2.076       .  S
Fe178       O189   2.069       .  S
Fe178       O194   2.080       .  S
Fe178       O188   1.982       .  S
Fe179       O197   2.058       .  S
Fe179       O184   2.072       .  S
Fe179       O191   2.071       .  S
Fe179       O180   2.068       .  S
Fe179       O188   1.978       .  S
O180        C187   1.269       .  A
O181        C195   1.267       .  A
O182        C187   1.269       .  A
O183        C186   1.270       .  A
O184        C196   1.271       .  A
O185        C198   1.270       .  A
C186        O191   1.270       .  A
C186       C1212   1.493       .  S
C187       C1005   1.488       .  S
O189        C192   1.270       .  A
O190        C192   1.270       .  A
C192        C965   1.488       .  S
O193        C198   1.267       .  A
O194        C196   1.273       .  A
C195        O197   1.267       .  A
C195       C1125   1.482       .  S
C196        C992   1.495       .  S
C198       C1045   1.490       .  S
C199        C200   1.546       .  S
C199        C205   1.536       .  S
C199        C203   1.537       .  S
C199       C1312   1.543       .  S
C200        H207   1.079       .  S
C200        C201   1.372       .  D
C201        C202   1.544       .  S
C201        C952   1.499       .  S
C202        C206   1.542       .  S
C202        C204   1.542       .  S
C202        H208   1.109       .  S
C203        H209   1.086       .  S
C203        C204   1.368       .  D
C204        C932   1.491       .  S
C205        H210   1.087       .  S
C205        C206   1.360       .  D
C206        C912   1.478       .  S
C211        C212   1.540       .  S
C211        C217   1.536       .  S
C211        C215   1.550       .  S
C211       C1292   1.543       .  S
C212        H219   1.086       .  S
C212        C213   1.370       .  D
C213        C214   1.541       .  S
C213        C865   1.493       .  S
C214        C218   1.534       .  S
C214        C216   1.536       .  S
C214        H220   1.109       .  S
C215        H221   1.078       .  S
C215        C216   1.371       .  D
C216        C892   1.486       .  S
C217        H222   1.087       .  S
C217        C218   1.357       .  D
C218        C845   1.471       .  S
C223        C224   1.542       .  S
C223        C229   1.535       .  S
C223        C227   1.551       .  S
C223       C1265   1.542       .  S
C224        H231   1.086       .  S
C224        C225   1.370       .  D
C225        C226   1.534       .  S
C225        C832   1.484       .  S
C226        C230   1.534       .  S
C226        C228   1.529       .  S
C226        H232   1.110       .  S
C227        H233   1.078       .  S
C227        C228   1.367       .  D
C228        C805   1.474       .  S
C229        H234   1.087       .  S
C229        C230   1.362       .  D
C230        C792   1.479       .  S
Fe235       O251   2.064   1_565  S
Fe235       O241   2.084   1_455  S
Fe235       O248   2.081   1_565  S
Fe235       O240   2.072   1_455  S
Fe235       O246   1.960   1_465  S
Fe236       O239   2.062   1_455  S
Fe236       O243   2.079       .  S
Fe236       O247   2.065       .  S
Fe236       O252   2.084   1_455  S
Fe236       O246   1.967   1_455  S
Fe237       O255   2.061   1_565  S
Fe237       O242   2.056   1_565  S
Fe237       O249   2.049       .  S
Fe237       O238   2.075       .  S
Fe237       O246   1.960   1_565  S
O238        C245   1.271       .  A
O239        C253   1.267       .  A
O240        C245   1.271       .  A
O241        C244   1.271       .  A
O242        C254   1.270       .  A
O243        C256   1.271       .  A
C244        O249   1.266       .  A
C244        C852   1.476       .  S
C245       C1392   1.482       .  S
O247        C250   1.270       .  A
O248        C250   1.273       .  A
C250       C1472   1.495       .  S
O251        C256   1.270       .  A
O252        C254   1.274       .  A
C253        O255   1.267       .  A
C253        C785   1.481       .  S
C254       C1332   1.486       .  S
C256        C905   1.485       .  S
C257       C1252   1.486       .  S
C257        C258   1.415       .  A
C257        C262   1.403       .  A
C258       C1145   1.489       .  S
C258        C259   1.409       .  A
C259        C260   1.409       .  A
C259        H264   1.085       .  S
C260        C945   1.495       .  S
C260        C261   1.416       .  A
C261        C812   1.484       .  S
C261        C262   1.405       .  A
C262        H263   1.085       .  S
C265       C1065   1.486       .  S
C265        C266   1.416       .  A
C265        C270   1.406       .  A
C266       C1165   1.489       .  S
C266        C267   1.406       .  A
C267        C268   1.403       .  A
C267        H272   1.085       .  S
C268        C885   1.478       .  S
C268        C269   1.411       .  A
C269        C825   1.488       .  S
C269        C270   1.404       .  A
C270        H271   1.085       .  S
C273       C1232   1.490       .  S
C273        C274   1.417       .  A
C273        C278   1.406       .  A
C274       C1085   1.491       .  S
C274        C275   1.408       .  A
C275        C276   1.407       .  A
C275        H280   1.085       .  S
C276        C925   1.492       .  S
C276        C277   1.416       .  A
C277        C872   1.488       .  S
C277        C278   1.405       .  A
C278        H279   1.085       .  S
C281        C282   1.538       .  S
C281        C287   1.537       .  S
C281        C285   1.546       .  S
C281       C1565   1.537       .  S
C282        H289   1.086       .  S
C282        C283   1.367       .  D
C283        C284   1.539       .  S
C283        C752   1.489       .  S
C284        C288   1.538       .  S
C284        C286   1.535       .  S
C284        H290   1.110       .  S
C285        H291   1.079       .  S
C285        C286   1.365       .  D
C286        C765   1.474       .  S
C287        H292   1.087       .  S
C287        C288   1.364       .  D
C288        C732   1.483       .  S
C293        C294   1.544       .  S
C293        C299   1.535       .  S
C293        C297   1.546       .  S
C293       C1592   1.543       .  S
C294        H301   1.085       .  S
C294        C295   1.373       .  D
C295        C296   1.540       .  S
C295        C705   1.497       .  S
C296        C300   1.538       .  S
C296        C298   1.531       .  S
C296        H302   1.109       .  S
C297        H303   1.077       .  S
C297        C298   1.365       .  D
C298        C685   1.474       .  S
C299        H304   1.087       .  S
C299        C300   1.363       .  D
C300        C665   1.484       .  S
C305        C306   1.537       .  S
C305        C311   1.538       .  S
C305        C309   1.547       .  S
C305       C1612   1.542       .  S
C306        H313   1.086       .  S
C306        C307   1.364       .  D
C307        C308   1.539       .  S
C307        C625   1.475       .  S
C308        C312   1.535       .  S
C308        C310   1.541       .  S
C308        H314   1.109       .  S
C309        H315   1.075       .  S
C309        C310   1.371       .  D
C310        C645   1.496       .  S
C311        H316   1.087       .  S
C311        C312   1.363       .  D
C312        C612   1.484       .  S
Fe317       O333   2.049       .  S
Fe317       O323   2.065       .  S
Fe317       O330   2.070       .  S
Fe317       O322   2.065       .  S
Fe317       O328   1.975       .  S
Fe318       O321   2.061       .  S
Fe318       O325   2.076       .  S
Fe318       O329   2.076       .  S
Fe318       O334   2.077       .  S
Fe318       O328   1.978   1_455  S
Fe319       O337   2.058       .  S
Fe319       O324   2.076       .  S
Fe319       O331   2.067       .  S
Fe319       O320   2.066       .  S
Fe319       O328   1.982   1_565  S
O320        C327   1.269       .  A
O321        C335   1.267   1_545  A
O322        C327   1.269   1_545  A
O323        C326   1.269   1_545  A
O324        C336   1.273   1_655  A
O325        C338   1.270       .  A
C326        O331   1.269       .  A
C326        C725   1.487       .  S
C327       C1705   1.483       .  S
O329        C332   1.271       .  A
O330        C332   1.271   1_655  A
C332       C1632   1.491       .  S
O333        C338   1.265   1_655  A
O334        C336   1.273   1_545  A
C335        O337   1.265   1_455  A
C335        C605   1.483       .  S
C336       C1785   1.498       .  S
C338        C672   1.490       .  S
C339        C340   1.549       .  S
C339        C345   1.537       .  S
C339        C343   1.540       .  S
C339        C972   1.543   1_545  S
C340        H347   1.078       .  S
C340        C341   1.369       .  D
C341        C342   1.538       .  S
C341        C565   1.490       .  S
C342        C346   1.540       .  S
C342        C344   1.538       .  S
C342        H348   1.110       .  S
C343        H349   1.086       .  S
C343        C344   1.367       .  D
C344        C585   1.481       .  S
C345        H350   1.086       .  S
C345        C346   1.363       .  D
C346        C552   1.485       .  S
C351        C352   1.543       .  S
C351        C357   1.536       .  S
C351        C355   1.548       .  S
C351       C1012   1.541   1_655  S
C352        H359   1.086       .  S
C352        C353   1.370       .  D
C353        C354   1.538       .  S
C353        C505   1.489       .  S
C354        C358   1.538       .  S
C354        C356   1.534       .  S
C354        H360   1.110       .  S
C355        H361   1.078       .  S
C355        C356   1.366       .  D
C356        C525   1.479       .  S
C357        H362   1.087       .  S
C357        C358   1.361       .  D
C358        C485   1.482       .  S
C363        C364   1.543       .  S
C363        C369   1.534       .  S
C363        C367   1.550       .  S
C363        C985   1.546       .  S
C364        H371   1.086       .  S
C364        C365   1.371       .  D
C365        C366   1.540       .  S
C365        C465   1.489       .  S
C366        C370   1.539       .  S
C366        C368   1.536       .  S
C366        H372   1.110       .  S
C367        H373   1.078       .  S
C367        C368   1.368       .  D
C368        C445   1.479       .  S
C369        H374   1.087       .  S
C369        C370   1.361       .  D
C370        C425   1.487       .  S
Fe375       O391   2.066       .  S
Fe375       O381   2.074       .  S
Fe375       O388   2.069       .  S
Fe375       O380   2.060       .  S
Fe375       O386   1.979       .  S
Fe376       O379   2.071       .  S
Fe376       O383   2.072       .  S
Fe376       O387   2.063       .  S
Fe376       O392   2.065       .  S
Fe376       O386   1.980       .  S
Fe377       O395   2.072       .  S
Fe377       O382   2.070       .  S
Fe377       O389   2.075       .  S
Fe377       O378   2.067       .  S
Fe377       O386   1.977       .  S
O378        C385   1.269       .  A
O379        C393   1.271       .  A
O380        C385   1.267       .  A
O381        C384   1.271       .  A
O382        C394   1.268       .  A
O383        C396   1.270       .  A
C384        O389   1.271       .  A
C384       C1192   1.496       .  S
C385        C492   1.487       .  S
O387        C390   1.268       .  A
O388        C390   1.270       .  A
C390        C545   1.491       .  S
O391        C396   1.269       .  A
O392        C394   1.268       .  A
C393        O395   1.272       .  A
C393       C1105   1.493       .  S
C394        C432   1.494       .  S
C396       C1032   1.488       .  S
C397        C772   1.481       .  S
C397        C398   1.413       .  A
C397        C402   1.404       .  A
C398        C632   1.483       .  S
C398        C399   1.403       .  A
C399        C400   1.406       .  A
C399        H404   1.085       .  S
C400        C512   1.485       .  S
C400        C401   1.415       .  A
C401        C452   1.486       .  S
C401        C402   1.405       .  A
C402        H403   1.085       .  S
C405        C712   1.491       .  S
C405        C406   1.417       .  A
C405        C410   1.406       .  A
C406        C652   1.492       .  S
C406        C407   1.409       .  A
C407        C408   1.408       .  A
C407        H412   1.084       .  S
C408        C592   1.496       .  S
C408        C409   1.416       .  A
C409        C472   1.485       .  S
C409        C410   1.405       .  A
C410        H411   1.085       .  S
C413        C692   1.489       .  S
C413        C414   1.416       .  A
C413        C418   1.406       .  A
C414        C745   1.488       .  S
C414        C415   1.406       .  A
C415        C416   1.406       .  A
C415        H420   1.085       .  S
C416        C572   1.485       .  S
C416        C417   1.417       .  A
C417        C532   1.494       .  S
C417        C418   1.406       .  A
C418        H419   1.085       .  S
C421        C422   1.408       .  A
C421        C426   1.402       .  A
C421        F439   1.358       .  S
C422        C427   1.488       .  S
C422        C423   1.406       .  A
C423        C424   1.397       .  A
C423        F428   1.358       .  S
C424        C425   1.409       .  A
C424        F440   1.358       .  S
C425        C426   1.406       .  A
C426        F429   1.357       .  S
C427        C430   1.405       .  A
C427        C434   1.406       .  A
C430        C431   1.399       .  A
C430        F435   1.358       .  S
C431        C432   1.413       .  A
C431        F437   1.358       .  S
C432        C433   1.412       .  A
C433        C434   1.402       .  A
C433        F436   1.358       .  S
C434        F438   1.358       .  S
C441        C442   1.409       .  A
C441        C446   1.401       .  A
C441        F459   1.358       .  S
C442        C447   1.490       .  S
C442        C443   1.410       .  A
C443        C444   1.402       .  A
C443        F448   1.358       .  S
C444        C445   1.403       .  A
C444        F460   1.358       .  S
C445        C446   1.402       .  A
C446        F449   1.357       .  S
C447        C450   1.408       .  A
C447        C454   1.409       .  A
C450        C451   1.398       .  A
C450        F455   1.358       .  S
C451        C452   1.405       .  A
C451        F457   1.358       .  S
C452        C453   1.406       .  A
C453        C454   1.403       .  A
C453        F456   1.358       .  S
C454        F458   1.358       .  S
C461        C462   1.407       .  A
C461        C466   1.404       .  A
C461        F479   1.358       .  S
C462        C467   1.488       .  S
C462        C463   1.407       .  A
C463        C464   1.399       .  A
C463        F468   1.358       .  S
C464        C465   1.407       .  A
C464        F480   1.358       .  S
C465        C466   1.409       .  A
C466        F469   1.358       .  S
C467        C470   1.407       .  A
C467        C474   1.409       .  A
C470        C471   1.398       .  A
C470        F475   1.358       .  S
C471        C472   1.405       .  A
C471        F477   1.358       .  S
C472        C473   1.405       .  A
C473        C474   1.403       .  A
C473        F476   1.358       .  S
C474        F478   1.357       .  S
C481        C482   1.404       .  A
C481        C486   1.396       .  A
C481        F499   1.358       .  S
C482        C487   1.480       .  S
C482        C483   1.407       .  A
C483        C484   1.401       .  A
C483        F488   1.357       .  S
C484        C485   1.405       .  A
C484        F500   1.357       .  S
C485        C486   1.408       .  A
C486        F489   1.358       .  S
C487        C490   1.404       .  A
C487        C494   1.403       .  A
C490        C491   1.400       .  A
C490        F495   1.358       .  S
C491        C492   1.412       .  A
C491        F497   1.358       .  S
C492        C493   1.411       .  A
C493        C494   1.398       .  A
C493        F496   1.358       .  S
C494        F498   1.358       .  S
C501        C502   1.408       .  A
C501        C506   1.400       .  A
C501        F519   1.358       .  S
C502        C507   1.489       .  S
C502        C503   1.407       .  A
C503        C504   1.402       .  A
C503        F508   1.358       .  S
C504        C505   1.408       .  A
C504        F520   1.358       .  S
C505        C506   1.407       .  A
C506        F509   1.358       .  S
C507        C510   1.409       .  A
C507        C514   1.407       .  A
C510        C511   1.402       .  A
C510        F515   1.357       .  S
C511        C512   1.405       .  A
C511        F517   1.357       .  S
C512        C513   1.406       .  A
C513        C514   1.399       .  A
C513        F516   1.358       .  S
C514        F518   1.358       .  S
C521        C522   1.410       .  A
C521        C526   1.401       .  A
C521        F539   1.358       .  S
C522        C527   1.490       .  S
C522        C523   1.409       .  A
C523        C524   1.401       .  A
C523        F528   1.358       .  S
C524        C525   1.403       .  A
C524        F540   1.358       .  S
C525        C526   1.403       .  A
C526        F529   1.358       .  S
C527        C530   1.406       .  A
C527        C534   1.409       .  A
C530        C531   1.398       .  A
C530        F535   1.358       .  S
C531        C532   1.410       .  A
C531        F537   1.358       .  S
C532        C533   1.408       .  A
C533        C534   1.403       .  A
C533        F536   1.356       .  S
C534        F538   1.358       .  S
C541        C542   1.406       .  A
C541        C546   1.400       .  A
C541        F559   1.358       .  S
C542        C547   1.486       .  S
C542        C543   1.405       .  A
C543        C544   1.398       .  A
C543        F548   1.358       .  S
C544        C545   1.412       .  A
C544        F560   1.358       .  S
C545        C546   1.412       .  A
C546        F549   1.358       .  S
C547        C550   1.405       .  A
C547        C554   1.408       .  A
C550        C551   1.396       .  A
C550        F555   1.358       .  S
C551        C552   1.408       .  A
C551        F557   1.358       .  S
C552        C553   1.406       .  A
C553        C554   1.402       .  A
C553        F556   1.357       .  S
C554        F558   1.358       .  S
C561        C562   1.407       .  A
C561        C566   1.399       .  A
C561        F579   1.358       .  S
C562        C567   1.489       .  S
C562        C563   1.407       .  A
C563        C564   1.404       .  A
C563        F568   1.358       .  S
C564        C565   1.408       .  A
C564        F580   1.357       .  S
C565        C566   1.407       .  A
C566        F569   1.358       .  S
C567        C570   1.409       .  A
C567        C574   1.407       .  A
C570        C571   1.403       .  A
C570        F575   1.357       .  S
C571        C572   1.405       .  A
C571        F577   1.357       .  S
C572        C573   1.406       .  A
C573        C574   1.399       .  A
C573        F576   1.358       .  S
C574        F578   1.358       .  S
C581        C582   1.411       .  A
C581        C586   1.400       .  A
C581        F599   1.358       .  S
C582        C587   1.495       .  S
C582        C583   1.411       .  A
C583        C584   1.403       .  A
C583        F588   1.358       .  S
C584        C585   1.404       .  A
C584        F600   1.358       .  S
C585        C586   1.402       .  A
C586        F589   1.358       .  S
C587        C590   1.409       .  A
C587        C594   1.409       .  A
C590        C591   1.402       .  A
C590        F595   1.358       .  S
C591        C592   1.408       .  A
C591        F597   1.356       .  S
C592        C593   1.409       .  A
C593        C594   1.401       .  A
C593        F596   1.358       .  S
C594        F598   1.358       .  S
C601        C602   1.402       .  A
C601        C606   1.397       .  A
C601        F619   1.358       .  S
C602        C607   1.476       .  S
C602        C603   1.403       .  A
C603        C604   1.399       .  A
C603        F608   1.358       .  S
C604        C605   1.410       .  A
C604        F620   1.358       .  S
C605        C606   1.410       .  A
C606        F609   1.357   1_565  S
C607        C610   1.403       .  A
C607        C614   1.404       .  A
C610        C611   1.396       .  A
C610        F615   1.358       .  S
C611        C612   1.408       .  A
C611        F617   1.358       .  S
C612        C613   1.407       .  A
C613        C614   1.400       .  A
C613        F616   1.355       .  S
C614        F618   1.358       .  S
C621        C622   1.410       .  A
C621        C626   1.401   1_655  A
C621        F639   1.358       .  S
C622        C627   1.490       .  S
C622        C623   1.410   1_655  A
C623        C624   1.399       .  A
C623        F628   1.358       .  S
C624        C625   1.402       .  A
C624        F640   1.358       .  S
C625        C626   1.402       .  A
C626        F629   1.356       .  S
C627        C630   1.409       .  A
C627        C634   1.409       .  A
C630        C631   1.400       .  A
C630        F635   1.358       .  S
C631        C632   1.404       .  A
C631        F637   1.356       .  S
C632        C633   1.404       .  A
C633        C634   1.400       .  A
C633        F636   1.358       .  S
C634        F638   1.358       .  S
C641        C642   1.408   1_565  A
C641        C646   1.403       .  A
C641        F659   1.358       .  S
C642        C647   1.491       .  S
C642        C643   1.406       .  A
C643        C644   1.397   1_545  A
C643        F648   1.358       .  S
C644        C645   1.411       .  A
C644        F660   1.358       .  S
C645        C646   1.410       .  A
C646        F649   1.357       .  S
C647        C650   1.409       .  A
C647        C654   1.407       .  A
C650        C651   1.402       .  A
C650        F655   1.358       .  S
C651        C652   1.407       .  A
C651        F657   1.357       .  S
C652        C653   1.408       .  A
C653        C654   1.399       .  A
C653        F656   1.358       .  S
C654        F658   1.358       .  S
C661        C662   1.403       .  A
C661        C666   1.395       .  A
C661        F679   1.358       .  S
C662        C667   1.481       .  S
C662        C663   1.408       .  A
C663        C664   1.402       .  A
C663        F668   1.358       .  S
C664        C665   1.406       .  A
C664        F680   1.358       .  S
C665        C666   1.409       .  A
C666        F669   1.358       .  S
C667        C670   1.402       .  A
C667        C674   1.405       .  A
C670        C671   1.396       .  A
C670        F675   1.358       .  S
C671        C672   1.413       .  A
C671        F677   1.358   1_455  S
C672        C673   1.412       .  A
C673        C674   1.401       .  A
C673        F676   1.357       .  S
C674        F678   1.358       .  S
C681        C682   1.408       .  A
C681        C686   1.397   1_655  A
C681        F699   1.358       .  S
C682        C687   1.486       .  S
C682        C683   1.409   1_655  A
C683        C684   1.400       .  A
C683        F688   1.358       .  S
C684        C685   1.402       .  A
C684        F700   1.358       .  S
C685        C686   1.402       .  A
C686        F689   1.358       .  S
C687        C690   1.406       .  A
C687        C694   1.408       .  A
C690        C691   1.394       .  A
C690        F695   1.358       .  S
C691        C692   1.407       .  A
C691        F697   1.358       .  S
C692        C693   1.409       .  A
C693        C694   1.402       .  A
C693        F696   1.357       .  S
C694        F698   1.358       .  S
C701        C702   1.404       .  A
C701        C706   1.400       .  A
C701        F719   1.358       .  S
C702        C707   1.485       .  S
C702        C703   1.403       .  A
C703        C704   1.403       .  A
C703        F708   1.358       .  S
C704        C705   1.412       .  A
C704        F720   1.357       .  S
C705        C706   1.411       .  A
C706        F709   1.357       .  S
C707        C710   1.405       .  A
C707        C714   1.407       .  A
C710        C711   1.399       .  A
C710        F715   1.358       .  S
C711        C712   1.408       .  A
C711        F717   1.358       .  S
C712        C713   1.408       .  A
C713        C714   1.404       .  A
C713        F716   1.357       .  S
C714        F718   1.358       .  S
C721        C722   1.403       .  A
C721        C726   1.400       .  A
C721        F739   1.358       .  S
C722        C727   1.478       .  S
C722        C723   1.402       .  A
C723        C724   1.399       .  A
C723        F728   1.358   1_565  S
C724        C725   1.413       .  A
C724        F740   1.358   1_565  S
C725        C726   1.410       .  A
C726        F729   1.357       .  S
C727        C730   1.402       .  A
C727        C734   1.406       .  A
C730        C731   1.395       .  A
C730        F735   1.358       .  S
C731        C732   1.408       .  A
C731        F737   1.358       .  S
C732        C733   1.406       .  A
C733        C734   1.403       .  A
C733        F736   1.357       .  S
C734        F738   1.358       .  S
C741        C742   1.409       .  A
C741        C746   1.404       .  A
C741        F759   1.358       .  S
C742        C747   1.488       .  S
C742        C743   1.406       .  A
C743        C744   1.396       .  A
C743        F748   1.358       .  S
C744        C745   1.406       .  A
C744        F760   1.358       .  S
C745        C746   1.407       .  A
C746        F749   1.357       .  S
C747        C750   1.407   1_545  A
C747        C754   1.407       .  A
C750        C751   1.397       .  A
C750        F755   1.358       .  S
C751        C752   1.408       .  A
C751        F757   1.358       .  S
C752        C753   1.409       .  A
C753        C754   1.402   1_565  A
C753        F756   1.358       .  S
C754        F758   1.358       .  S
C761        C762   1.411       .  A
C761        C766   1.400       .  A
C761        F779   1.358       .  S
C762        C767   1.491       .  S
C762        C763   1.410       .  A
C763        C764   1.400       .  A
C763        F768   1.358       .  S
C764        C765   1.402       .  A
C764        F780   1.358       .  S
C765        C766   1.401       .  A
C766        F769   1.358       .  S
C767        C770   1.410       .  A
C767        C774   1.409       .  A
C770        C771   1.401       .  A
C770        F775   1.358       .  S
C771        C772   1.404       .  A
C771        F777   1.356       .  S
C772        C773   1.404       .  A
C773        C774   1.398       .  A
C773        F776   1.358       .  S
C774        F778   1.358       .  S
C781        C782   1.402       .  A
C781        C786   1.394       .  A
C781        F799   1.358       .  S
C782        C787   1.478       .  S
C782        C783   1.406       .  A
C783        C784   1.400       .  A
C783        F788   1.358       .  S
C784        C785   1.408       .  A
C784        F800   1.358       .  S
C785        C786   1.411       .  A
C786        F789   1.358   1_545  S
C787        C790   1.406       .  A
C787        C794   1.404       .  A
C790        C791   1.400       .  A
C790        F795   1.358       .  S
C791        C792   1.405       .  A
C791        F797   1.357       .  S
C792        C793   1.407       .  A
C793        C794   1.393       .  A
C793        F796   1.358       .  S
C794        F798   1.358       .  S
C801        C802   1.408       .  A
C801        C806   1.399       .  A
C801        F819   1.358   1_655  S
C802        C807   1.483   1_655  S
C802        C803   1.407       .  A
C803        C804   1.400       .  A
C803        F808   1.358       .  S
C804        C805   1.403       .  A
C804        F820   1.358       .  S
C805        C806   1.401       .  A
C806        F809   1.358       .  S
C807        C810   1.405       .  A
C807        C814   1.408       .  A
C810        C811   1.395       .  A
C810        F815   1.358       .  S
C811        C812   1.406       .  A
C811        F817   1.358       .  S
C812        C813   1.407       .  A
C813        C814   1.403       .  A
C813        F816   1.357       .  S
C814        F818   1.358       .  S
C821        C822   1.405       .  A
C821        C826   1.403       .  A
C821        F839   1.358       .  S
C822        C827   1.479   1_565  S
C822        C823   1.403       .  A
C823        C824   1.395       .  A
C823        F828   1.358       .  S
C824        C825   1.407       .  A
C824        F840   1.358       .  S
C825        C826   1.409       .  A
C826        F829   1.356       .  S
C827        C830   1.404       .  A
C827        C834   1.405       .  A
C830        C831   1.401       .  A
C830        F835   1.358   1_545  S
C831        C832   1.409       .  A
C831        F837   1.358       .  S
C832        C833   1.407       .  A
C833        C834   1.397       .  A
C833        F836   1.358       .  S
C834        F838   1.358       .  S
C841        C842   1.407       .  A
C841        C846   1.399       .  A
C841        F859   1.358       .  S
C842        C847   1.480       .  S
C842        C843   1.406       .  A
C843        C844   1.397       .  A
C843        F848   1.358       .  S
C844        C845   1.402       .  A
C844        F860   1.357       .  S
C845        C846   1.404       .  A
C846        F849   1.358       .  S
C847        C850   1.403       .  A
C847        C854   1.407       .  A
C850        C851   1.397       .  A
C850        F855   1.358       .  S
C851        C852   1.408       .  A
C851        F857   1.357       .  S
C852        C853   1.405       .  A
C853        C854   1.400       .  A
C853        F856   1.358       .  S
C854        F858   1.358       .  S
C861        C862   1.405       .  A
C861        C866   1.398       .  A
C861        F879   1.358       .  S
C862        C867   1.486   1_655  S
C862        C863   1.405       .  A
C863        C864   1.403       .  A
C863        F868   1.358   1_655  S
C864        C865   1.410       .  A
C864        F880   1.356       .  S
C865        C866   1.409       .  A
C866        F869   1.358       .  S
C867        C870   1.407       .  A
C867        C874   1.406       .  A
C870        C871   1.402       .  A
C870        F875   1.357       .  S
C871        C872   1.407       .  A
C871        F877   1.357       .  S
C872        C873   1.407       .  A
C873        C874   1.398       .  A
C873        F876   1.358       .  S
C874        F878   1.358   1_455  S
C881        C882   1.404       .  A
C881        C886   1.396       .  A
C881        F899   1.358       .  S
C882        C887   1.479       .  S
C882        C883   1.407       .  A
C883        C884   1.401       .  A
C883        F888   1.358       .  S
C884        C885   1.404       .  A
C884        F900   1.358       .  S
C885        C886   1.404       .  A
C886        F889   1.358       .  S
C887        C890   1.405       .  A
C887        C894   1.403       .  A
C890        C891   1.398       .  A
C890        F895   1.358       .  S
C891        C892   1.407       .  A
C891        F897   1.358       .  S
C892        C893   1.409       .  A
C893        C894   1.400       .  A
C893        F896   1.356       .  S
C894        F898   1.358       .  S
C901        C902   1.405       .  A
C901        C906   1.399       .  A
C901        F919   1.358       .  S
C902        C907   1.486       .  S
C902        C903   1.407       .  A
C903        C904   1.402       .  A
C903        F908   1.358       .  S
C904        C905   1.409       .  A
C904        F920   1.358       .  S
C905        C906   1.409       .  A
C906        F909   1.358   1_545  S
C907        C910   1.407       .  A
C907        C914   1.407       .  A
C910        C911   1.400       .  A
C910        F915   1.358       .  S
C911        C912   1.404       .  A
C911        F917   1.358       .  S
C912        C913   1.404       .  A
C913        C914   1.401       .  A
C913        F916   1.357       .  S
C914        F918   1.358       .  S
C921        C922   1.406       .  A
C921        C926   1.404       .  A
C921        F939   1.357       .  S
C922        C927   1.484   1_565  S
C922        C923   1.404       .  A
C923        C924   1.399       .  A
C923        F928   1.358       .  S
C924        C925   1.408       .  A
C924        F940   1.358       .  S
C925        C926   1.409       .  A
C926        F929   1.357       .  S
C927        C930   1.404       .  A
C927        C934   1.405       .  A
C930        C931   1.400       .  A
C930        F935   1.358       .  S
C931        C932   1.409       .  A
C931        F937   1.358       .  S
C932        C933   1.408       .  A
C933        C934   1.405       .  A
C933        F936   1.357       .  S
C934        F938   1.357   1_545  S
C941        C942   1.407       .  A
C941        C946   1.398       .  A
C941        F959   1.358       .  S
C942        C947   1.491       .  S
C942        C943   1.408       .  A
C943        C944   1.406       .  A
C943        F948   1.358       .  S
C944        C945   1.410       .  A
C944        F960   1.357       .  S
C945        C946   1.407       .  A
C946        F949   1.358       .  S
C947        C950   1.407       .  A
C947        C954   1.405       .  A
C950        C951   1.407       .  A
C950        F955   1.358       .  S
C951        C952   1.412       .  A
C951        F957   1.356       .  S
C952        C953   1.411       .  A
C953        C954   1.396       .  A
C953        F956   1.358       .  S
C954        F958   1.358       .  S
C961        C962   1.404       .  A
C961        C966   1.402       .  A
C961        F979   1.358       .  S
C962        C967   1.483       .  S
C962        C963   1.404       .  A
C963        C964   1.400       .  A
C963        F968   1.358       .  S
C964        C965   1.410       .  A
C964        F980   1.358       .  S
C965        C966   1.411       .  A
C966        F969   1.358       .  S
C967        C970   1.401       .  A
C967        C974   1.401       .  A
C970        C971   1.403       .  A
C970        F975   1.358       .  S
C971        C972   1.420       .  A
C971        F977   1.353       .  S
C972        C973   1.417       .  A
C973        C974   1.398       .  A
C973        F976   1.358       .  S
C974        F978   1.358       .  S
C981        C982   1.405       .  A
C981        C986   1.399       .  A
C981        F999   1.358       .  S
C982        C987   1.498       .  S
C982        C983   1.407       .  A
C983        C984   1.405       .  A
C983        F988   1.358       .  S
C984        C985   1.419       .  A
C984       F1000   1.352       .  S
C985        C986   1.417       .  A
C986        F989   1.359       .  S
C987        C990   1.409       .  A
C987        C994   1.409       .  A
C990        C991   1.404       .  A
C990        F995   1.358       .  S
C991        C992   1.411       .  A
C991        F997   1.358       .  S
C992        C993   1.411       .  A
C993        C994   1.402       .  A
C993        F996   1.358       .  S
C994        F998   1.358       .  S
C1001      C1002   1.406       .  A
C1001      C1006   1.400       .  A
C1001      F1019   1.358       .  S
C1002      C1007   1.486       .  S
C1002      C1003   1.405       .  A
C1003      C1004   1.399       .  A
C1003      F1008   1.358       .  S
C1004      C1005   1.410       .  A
C1004      F1020   1.358       .  S
C1005      C1006   1.411       .  A
C1006      F1009   1.358       .  S
C1007      C1010   1.403       .  A
C1007      C1014   1.402       .  A
C1010      C1011   1.403       .  A
C1010      F1015   1.358       .  S
C1011      C1012   1.419       .  A
C1011      F1017   1.352       .  S
C1012      C1013   1.416       .  A
C1013      C1014   1.396       .  A
C1013      F1016   1.359       .  S
C1014      F1018   1.358       .  S
C1021      C1022   1.401       .  A
C1021      C1026   1.397       .  A
C1021      F1039   1.358       .  S
C1022      C1027   1.484       .  S
C1022      C1023   1.402       .  A
C1023      C1024   1.403       .  A
C1023      F1028   1.358       .  S
C1024      C1025   1.420       .  A
C1024      F1040   1.351       .  S
C1025      C1026   1.417       .  A
C1026      F1029   1.359       .  S
C1027      C1030   1.404       .  A
C1027      C1034   1.405       .  A
C1030      C1031   1.400       .  A
C1030      F1035   1.358       .  S
C1031      C1032   1.411       .  A
C1031      F1037   1.358       .  S
C1032      C1033   1.411       .  A
C1033      C1034   1.400       .  A
C1033      F1036   1.358       .  S
C1034      F1038   1.358       .  S
C1041      C1042   1.404       .  A
C1041      C1046   1.401       .  A
C1041      F1059   1.358       .  S
C1042      C1047   1.481       .  S
C1042      C1043   1.402       .  A
C1043      C1044   1.398       .  A
C1043      F1048   1.358       .  S
C1044      C1045   1.413       .  A
C1044      F1060   1.356       .  S
C1045      C1046   1.411       .  A
C1046      F1049   1.358       .  S
C1047      C1050   1.407       .  A
C1047      C1054   1.403       .  A
C1050      C1051   1.403       .  A
C1050      F1055   1.358       .  S
C1051      C1052   1.405       .  A
C1051      F1057   1.358       .  S
C1052      C1053   1.409       .  A
C1053      C1054   1.396       .  A
C1053      F1056   1.358       .  S
C1054      F1058   1.358       .  S
C1061      C1062   1.410       .  A
C1061      C1066   1.402       .  A
C1061      F1079   1.358       .  S
C1062      C1067   1.490       .  S
C1062      C1063   1.408       .  A
C1063      C1064   1.396       .  A
C1063      F1068   1.358       .  S
C1064      C1065   1.406       .  A
C1064      F1080   1.358       .  S
C1065      C1066   1.406       .  A
C1066      F1069   1.357       .  S
C1067      C1070   1.407       .  A
C1067      C1074   1.406       .  A
C1070      C1071   1.401       .  A
C1070      F1075   1.358       .  S
C1071      C1072   1.412       .  A
C1071      F1077   1.357       .  S
C1072      C1073   1.411       .  A
C1073      C1074   1.400       .  A
C1073      F1076   1.357       .  S
C1074      F1078   1.358       .  S
C1081      C1082   1.407       .  A
C1081      C1086   1.405       .  A
C1081      F1099   1.357       .  S
C1082      C1087   1.486       .  S
C1082      C1083   1.405       .  A
C1083      C1084   1.397       .  A
C1083      F1088   1.358       .  S
C1084      C1085   1.407       .  A
C1084      F1100   1.358       .  S
C1085      C1086   1.409       .  A
C1086      F1089   1.357       .  S
C1087      C1090   1.404       .  A
C1087      C1094   1.406       .  A
C1090      C1091   1.397       .  A
C1090      F1095   1.358       .  S
C1091      C1092   1.409       .  A
C1091      F1097   1.358       .  S
C1092      C1093   1.409       .  A
C1093      C1094   1.405       .  A
C1093      F1096   1.357       .  S
C1094      F1098   1.357       .  S
C1101      C1102   1.406       .  A
C1101      C1106   1.403       .  A
C1101      F1119   1.358       .  S
C1102      C1107   1.487       .  S
C1102      C1103   1.404       .  A
C1103      C1104   1.399       .  A
C1103      F1108   1.358       .  S
C1104      C1105   1.412       .  A
C1104      F1120   1.358       .  S
C1105      C1106   1.413       .  A
C1106      F1109   1.358       .  S
C1107      C1110   1.401       .  A
C1107      C1114   1.405       .  A
C1110      C1111   1.397       .  A
C1110      F1115   1.358       .  S
C1111      C1112   1.418       .  A
C1111      F1117   1.359       .  S
C1112      C1113   1.417       .  A
C1113      C1114   1.404       .  A
C1113      F1116   1.353       .  S
C1114      F1118   1.358       .  S
C1121      C1122   1.404       .  A
C1121      C1126   1.394       .  A
C1121      F1139   1.358       .  S
C1122      C1127   1.483       .  S
C1122      C1123   1.407       .  A
C1123      C1124   1.401       .  A
C1123      F1128   1.358       .  S
C1124      C1125   1.410       .  A
C1124      F1140   1.358       .  S
C1125      C1126   1.409       .  A
C1126      F1129   1.358       .  S
C1127      C1130   1.409       .  A
C1127      C1134   1.406       .  A
C1130      C1131   1.401       .  A
C1130      F1135   1.358       .  S
C1131      C1132   1.403       .  A
C1131      F1137   1.357       .  S
C1132      C1133   1.404       .  A
C1133      C1134   1.394       .  A
C1133      F1136   1.358       .  S
C1134      F1138   1.358       .  S
C1141      C1142   1.406       .  A
C1141      C1146   1.399       .  A
C1141      F1159   1.358       .  S
C1142      C1147   1.489       .  S
C1142      C1143   1.408       .  A
C1143      C1144   1.404       .  A
C1143      F1148   1.358       .  S
C1144      C1145   1.408       .  A
C1144      F1160   1.357       .  S
C1145      C1146   1.407       .  A
C1146      F1149   1.358       .  S
C1147      C1150   1.406       .  A
C1147      C1154   1.406       .  A
C1150      C1151   1.404       .  A
C1150      F1155   1.358       .  S
C1151      C1152   1.409       .  A
C1151      F1157   1.357       .  S
C1152      C1153   1.409       .  A
C1153      C1154   1.399       .  A
C1153      F1156   1.358       .  S
C1154      F1158   1.358       .  S
C1161      C1162   1.407       .  A
C1161      C1166   1.396       .  A
C1161      F1179   1.358       .  S
C1162      C1167   1.490       .  S
C1162      C1163   1.409       .  A
C1163      C1164   1.404       .  A
C1163      F1168   1.358       .  S
C1164      C1165   1.408       .  A
C1164      F1180   1.358       .  S
C1165      C1166   1.406       .  A
C1166      F1169   1.358       .  S
C1167      C1170   1.409       .  A
C1167      C1174   1.409       .  A
C1170      C1171   1.400       .  A
C1170      F1175   1.358       .  S
C1171      C1172   1.403       .  A
C1171      F1177   1.358       .  S
C1172      C1173   1.404       .  A
C1173      C1174   1.402       .  A
C1173      F1176   1.358       .  S
C1174      F1178   1.358       .  S
C1181      C1182   1.402       .  A
C1181      C1186   1.399       .  A
C1181      F1199   1.358       .  S
C1182      C1187   1.491       .  S
C1182      C1183   1.405       .  A
C1183      C1184   1.405       .  A
C1183      F1188   1.358       .  S
C1184      C1185   1.417       .  A
C1184      F1200   1.352       .  S
C1185      C1186   1.418       .  A
C1186      F1189   1.359       .  S
C1187      C1190   1.406       .  A
C1187      C1194   1.406       .  A
C1190      C1191   1.404       .  A
C1190      F1195   1.358       .  S
C1191      C1192   1.413       .  A
C1191      F1197   1.358       .  S
C1192      C1193   1.412       .  A
C1193      C1194   1.401       .  A
C1193      F1196   1.358       .  S
C1194      F1198   1.358       .  S
C1201      C1202   1.402       .  A
C1201      C1206   1.397       .  A
C1201      F1219   1.358       .  S
C1202      C1207   1.484       .  S
C1202      C1203   1.406       .  A
C1203      C1204   1.405       .  A
C1203      F1208   1.358       .  S
C1204      C1205   1.410       .  A
C1204      F1220   1.356       .  S
C1205      C1206   1.412       .  A
C1206      F1209   1.358       .  S
C1207      C1210   1.404       .  A
C1207      C1214   1.403       .  A
C1210      C1211   1.403       .  A
C1210      F1215   1.358       .  S
C1211      C1212   1.412       .  A
C1211      F1217   1.358       .  S
C1212      C1213   1.413       .  A
C1213      C1214   1.399       .  A
C1213      F1216   1.356       .  S
C1214      F1218   1.358       .  S
C1221      C1222   1.407       .  A
C1221      C1226   1.400       .  A
C1221      F1239   1.358       .  S
C1222      C1227   1.491       .  S
C1222      C1223   1.408       .  A
C1223      C1224   1.401       .  A
C1223      F1228   1.358       .  S
C1224      C1225   1.409       .  A
C1224      F1240   1.357       .  S
C1225      C1226   1.411       .  A
C1226      F1229   1.358       .  S
C1227      C1230   1.410       .  A
C1227      C1234   1.407       .  A
C1230      C1231   1.404       .  A
C1230      F1235   1.358       .  S
C1231      C1232   1.407       .  A
C1231      F1237   1.357       .  S
C1232      C1233   1.407       .  A
C1233      C1234   1.397       .  A
C1233      F1236   1.358       .  S
C1234      F1238   1.358       .  S
C1241      C1242   1.408       .  A
C1241      C1246   1.401       .  A
C1241      F1259   1.358       .  S
C1242      C1247   1.491       .  S
C1242      C1243   1.409       .  A
C1243      C1244   1.404       .  A
C1243      F1248   1.358       .  S
C1244      C1245   1.405       .  A
C1244      F1260   1.358       .  S
C1245      C1246   1.403       .  A
C1246      F1249   1.357       .  S
C1247      C1250   1.407       .  A
C1247      C1254   1.409       .  A
C1250      C1251   1.399       .  A
C1250      F1255   1.358       .  S
C1251      C1252   1.405       .  A
C1251      F1257   1.358       .  S
C1252      C1253   1.406       .  A
C1253      C1254   1.405       .  A
C1253      F1256   1.358       .  S
C1254      F1258   1.358       .  S
C1261      C1262   1.404       .  A
C1261      C1266   1.403       .  A
C1261      F1279   1.358       .  S
C1262      C1267   1.487       .  S
C1262      C1263   1.402       .  A
C1263      C1264   1.398       .  A
C1263      F1268   1.358       .  S
C1264      C1265   1.418       .  A
C1264      F1280   1.359       .  S
C1265      C1266   1.418       .  A
C1266      F1269   1.352       .  S
C1267      C1270   1.404       .  A
C1267      C1274   1.406       .  A
C1270      C1271   1.399       .  A
C1270      F1275   1.358       .  S
C1271      C1272   1.413       .  A
C1271      F1277   1.358       .  S
C1272      C1273   1.412       .  A
C1273      C1274   1.402       .  A
C1273      F1276   1.358       .  S
C1274      F1278   1.358       .  S
C1281      C1282   1.406       .  A
C1281      C1286   1.404       .  A
C1281      F1299   1.358       .  S
C1282      C1287   1.486       .  S
C1282      C1283   1.403       .  A
C1283      C1284   1.399       .  A
C1283      F1288   1.358       .  S
C1284      C1285   1.413       .  A
C1284      F1300   1.358       .  S
C1285      C1286   1.412       .  A
C1286      F1289   1.357       .  S
C1287      C1290   1.400       .  A
C1287      C1294   1.403       .  A
C1290      C1291   1.398       .  A
C1290      F1295   1.358       .  S
C1291      C1292   1.417       .  A
C1291      F1297   1.359       .  S
C1292      C1293   1.419       .  A
C1293      C1294   1.404       .  A
C1293      F1296   1.352       .  S
C1294      F1298   1.358       .  S
C1301      C1302   1.405       .  A
C1301      C1306   1.400       .  A
C1301      F1319   1.358       .  S
C1302      C1307   1.488       .  S
C1302      C1303   1.406       .  A
C1303      C1304   1.402       .  A
C1303      F1308   1.358       .  S
C1304      C1305   1.410       .  A
C1304      F1320   1.358       .  S
C1305      C1306   1.412       .  A
C1306      F1309   1.358       .  S
C1307      C1310   1.403       .  A
C1307      C1314   1.404       .  A
C1310      C1311   1.398       .  A
C1310      F1315   1.358       .  S
C1311      C1312   1.416       .  A
C1311      F1317   1.358       .  S
C1312      C1313   1.419       .  A
C1313      C1314   1.404       .  A
C1313      F1316   1.354       .  S
C1314      F1318   1.358       .  S
C1321      C1322   1.401       .  A
C1321      C1326   1.397       .  A
C1321      F1339   1.358       .  S
C1322      C1327   1.484       .  S
C1322      C1323   1.403       .  A
C1323      C1324   1.402       .  A
C1323      F1328   1.358       .  S
C1324      C1325   1.420       .  A
C1324      F1340   1.353       .  S
C1325      C1326   1.417       .  A
C1326      F1329   1.358       .  S
C1327      C1330   1.404       .  A
C1327      C1334   1.406       .  A
C1330      C1331   1.398       .  A
C1330      F1335   1.358       .  S
C1331      C1332   1.410       .  A
C1331      F1337   1.358       .  S
C1332      C1333   1.410       .  A
C1333      C1334   1.402       .  A
C1333      F1336   1.358       .  S
C1334      F1338   1.358       .  S
C1341      C1342   1.407       .  A
C1341      C1346   1.401       .  A
C1341      F1359   1.358       .  S
C1342      C1347   1.488       .  S
C1342      C1343   1.409       .  A
C1343      C1344   1.401       .  A
C1343      F1348   1.358       .  S
C1344      C1345   1.405       .  A
C1344      F1360   1.358       .  S
C1345      C1346   1.407       .  A
C1346      F1349   1.358       .  S
C1347      C1350   1.409       .  A
C1347      C1354   1.409       .  A
C1350      C1351   1.399       .  A
C1350      F1355   1.358       .  S
C1351      C1352   1.402       .  A
C1351      F1357   1.357       .  S
C1352      C1353   1.403       .  A
C1353      C1354   1.401       .  A
C1353      F1356   1.358       .  S
C1354      F1358   1.358       .  S
C1361      C1362   1.404       .  A
C1361      C1366   1.403       .  A
C1361      F1379   1.358       .  S
C1362      C1367   1.483       .  S
C1362      C1363   1.403       .  A
C1363      C1364   1.397       .  A
C1363      F1368   1.358       .  S
C1364      C1365   1.412       .  A
C1364      F1380   1.358       .  S
C1365      C1366   1.412       .  A
C1366      F1369   1.356       .  S
C1367      C1370   1.406       .  A
C1367      C1374   1.406       .  A
C1370      C1371   1.398       .  A
C1370      F1375   1.358       .  S
C1371      C1372   1.406       .  A
C1371      F1377   1.358   1_655  S
C1372      C1373   1.407       .  A
C1373      C1374   1.402       .  A
C1373      F1376   1.358       .  S
C1374      F1378   1.358       .  S
C1381      C1382   1.403       .  A
C1381      C1386   1.401       .  A
C1381      F1399   1.358       .  S
C1382      C1387   1.488       .  S
C1382      C1383   1.401       .  A
C1383      C1384   1.399       .  A
C1383      F1388   1.358       .  S
C1384      C1385   1.419       .  A
C1384      F1400   1.356       .  S
C1385      C1386   1.419       .  A
C1386      F1389   1.356       .  S
C1387      C1390   1.407       .  A
C1387      C1394   1.407       .  A
C1390      C1391   1.399       .  A
C1390      F1395   1.358       .  S
C1391      C1392   1.409       .  A
C1391      F1397   1.358       .  S
C1392      C1393   1.406       .  A
C1393      C1394   1.403       .  A
C1393      F1396   1.357       .  S
C1394      F1398   1.358       .  S
C1401      C1402   1.405       .  A
C1401      C1406   1.398       .  A
C1401      F1419   1.358       .  S
C1402      C1407   1.475       .  S
C1402      C1403   1.404       .  A
C1403      C1404   1.395       .  A
C1403      F1408   1.358       .  S
C1404      C1405   1.405       .  A
C1404      F1420   1.358       .  S
C1405      C1406   1.404       .  A
C1406      F1409   1.358       .  S
C1407      C1410   1.404       .  A
C1407      C1414   1.401       .  A
C1410      C1411   1.399       .  A
C1410      F1415   1.358       .  S
C1411      C1412   1.410       .  A
C1411      F1417   1.358       .  S
C1412      C1413   1.410       .  A
C1413      C1414   1.395       .  A
C1413      F1416   1.356       .  S
C1414      F1418   1.358       .  S
C1421      C1422   1.403       .  A
C1421      C1426   1.397       .  A
C1421      F1439   1.358       .  S
C1422      C1427   1.475       .  S
C1422      C1423   1.403       .  A
C1423      C1424   1.402       .  A
C1423      F1428   1.358       .  S
C1424      C1425   1.408       .  A
C1424      F1440   1.358       .  S
C1425      C1426   1.406       .  A
C1426      F1429   1.358       .  S
C1427      C1430   1.403       .  A
C1427      C1434   1.403       .  A
C1430      C1431   1.401       .  A
C1430      F1435   1.358       .  S
C1431      C1432   1.408       .  A
C1431      F1437   1.357       .  S
C1432      C1433   1.406       .  A
C1433      C1434   1.397       .  A
C1433      F1436   1.358       .  S
C1434      F1438   1.358       .  S
C1441      C1442   1.406       .  A
C1441      C1446   1.396       .  A
C1441      F1459   1.358       .  S
C1442      C1447   1.490       .  S
C1442      C1443   1.409       .  A
C1443      C1444   1.402       .  A
C1443      F1448   1.358       .  S
C1444      C1445   1.409       .  A
C1444      F1460   1.357       .  S
C1445      C1446   1.409       .  A
C1446      F1449   1.358   1_554  S
C1447      C1450   1.408       .  A
C1447      C1454   1.407       .  A
C1450      C1451   1.400       .  A
C1450      F1455   1.358       .  S
C1451      C1452   1.407       .  A
C1451      F1457   1.357       .  S
C1452      C1453   1.409       .  A
C1453      C1454   1.399       .  A
C1453      F1456   1.358       .  S
C1454      F1458   1.358       .  S
C1461      C1462   1.402       .  A
C1461      C1466   1.396       .  A
C1461      F1479   1.358       .  S
C1462      C1467   1.489       .  S
C1462      C1463   1.405       .  A
C1463      C1464   1.404       .  A
C1463      F1468   1.358       .  S
C1464      C1465   1.418       .  A
C1464      F1480   1.352       .  S
C1465      C1466   1.417       .  A
C1466      F1469   1.359       .  S
C1467      C1470   1.406       .  A
C1467      C1474   1.405       .  A
C1470      C1471   1.402       .  A
C1470      F1475   1.358       .  S
C1471      C1472   1.413       .  A
C1471      F1477   1.358       .  S
C1472      C1473   1.413       .  A
C1473      C1474   1.399       .  A
C1473      F1476   1.358       .  S
C1474      F1478   1.358       .  S
C1481      C1482   1.406       .  A
C1481      C1486   1.403       .  A
C1481      F1499   1.358       .  S
C1482      C1487   1.485       .  S
C1482      C1483   1.403       .  A
C1483      C1484   1.397       .  A
C1483      F1488   1.358       .  S
C1484      C1485   1.413       .  A
C1484      F1500   1.357       .  S
C1485      C1486   1.412       .  A
C1486      F1489   1.358       .  S
C1487      C1490   1.404       .  A
C1487      C1494   1.408       .  A
C1490      C1491   1.395       .  A
C1490      F1495   1.358       .  S
C1491      C1492   1.409       .  A
C1491      F1497   1.358       .  S
C1492      C1493   1.406       .  A
C1493      C1494   1.405       .  A
C1493      F1496   1.357       .  S
C1494      F1498   1.358       .  S
C1501      C1502   1.409       .  A
C1501      C1506   1.406       .  A
C1501      F1519   1.358       .  S
C1502      C1507   1.492       .  S
C1502      C1503   1.407       .  A
C1503      C1504   1.398       .  A
C1503      F1508   1.358       .  S
C1504      C1505   1.408       .  A
C1504      F1520   1.358       .  S
C1505      C1506   1.409       .  A
C1506      F1509   1.358       .  S
C1507      C1510   1.408       .  A
C1507      C1514   1.408       .  A
C1510      C1511   1.400       .  A
C1510      F1515   1.358       .  S
C1511      C1512   1.406       .  A
C1511      F1517   1.358   1_554  S
C1512      C1513   1.407       .  A
C1513      C1514   1.403       .  A
C1513      F1516   1.357       .  S
C1514      F1518   1.358       .  S
C1521      C1522   1.408       .  A
C1521      C1526   1.401       .  A
C1521      F1539   1.358       .  S
C1522      C1527   1.483       .  S
C1522      C1523   1.405       .  A
C1523      C1524   1.397       .  A
C1523      F1528   1.358       .  S
C1524      C1525   1.407       .  A
C1524      F1540   1.358   1_554  S
C1525      C1526   1.406       .  A
C1526      F1529   1.357       .  S
C1527      C1530   1.406       .  A
C1527      C1534   1.405       .  A
C1530      C1531   1.398       .  A
C1530      F1535   1.358       .  S
C1531      C1532   1.408       .  A
C1531      F1537   1.358       .  S
C1532      C1533   1.409       .  A
C1533      C1534   1.400       .  A
C1533      F1536   1.356       .  S
C1534      F1538   1.358       .  S
C1541      C1542   1.409       .  A
C1541      C1546   1.401       .  A
C1541      F1559   1.358       .  S
C1542      C1547   1.487       .  S
C1542      C1543   1.408       .  A
C1543      C1544   1.401       .  A
C1543      F1548   1.358       .  S
C1544      C1545   1.404       .  A
C1544      F1560   1.358       .  S
C1545      C1546   1.403       .  A
C1546      F1549   1.358       .  S
C1547      C1550   1.406       .  A
C1547      C1554   1.407       .  A
C1550      C1551   1.401       .  A
C1550      F1555   1.358       .  S
C1551      C1552   1.408       .  A
C1551      F1557   1.357       .  S
C1552      C1553   1.409       .  A
C1553      C1554   1.400       .  A
C1553      F1556   1.358   1_545  S
C1554      F1558   1.358       .  S
C1561      C1562   1.402       .  A
C1561      C1566   1.402       .  A
C1561      F1579   1.358       .  S
C1562      C1567   1.478       .  S
C1562      C1563   1.399       .  A
C1563      C1564   1.394       .  A
C1563      F1568   1.358       .  S
C1564      C1565   1.417       .  A
C1564      F1580   1.359       .  S
C1565      C1566   1.419       .  A
C1566      F1569   1.352       .  S
C1567      C1570   1.402       .  A
C1567      C1574   1.404       .  A
C1570      C1571   1.396       .  A
C1570      F1575   1.358       .  S
C1571      C1572   1.412       .  A
C1571      F1577   1.358       .  S
C1572      C1573   1.411       .  A
C1573      C1574   1.400       .  A
C1573      F1576   1.358       .  S
C1574      F1578   1.358       .  S
C1581      C1582   1.405       .  A
C1581      C1586   1.402       .  A
C1581      F1599   1.358       .  S
C1582      C1587   1.482       .  S
C1582      C1583   1.404       .  A
C1583      C1584   1.398       .  A
C1583      F1588   1.358       .  S
C1584      C1585   1.410       .  A
C1584      F1600   1.358       .  S
C1585      C1586   1.410       .  A
C1586      F1589   1.358       .  S
C1587      C1590   1.399       .  A
C1587      C1594   1.402       .  A
C1590      C1591   1.396       .  A
C1590      F1595   1.358       .  S
C1591      C1592   1.417       .  A
C1591      F1597   1.358       .  S
C1592      C1593   1.421       .  A
C1593      C1594   1.403       .  A
C1593      F1596   1.351       .  S
C1594      F1598   1.358       .  S
C1601      C1602   1.405       .  A
C1601      C1606   1.400       .  A
C1601      F1619   1.358       .  S
C1602      C1607   1.483       .  S
C1602      C1603   1.406       .  A
C1603      C1604   1.397       .  A
C1603      F1608   1.358       .  S
C1604      C1605   1.409       .  A
C1604      F1620   1.358       .  S
C1605      C1606   1.411       .  A
C1606      F1609   1.358       .  S
C1607      C1610   1.401       .  A
C1607      C1614   1.401       .  A
C1610      C1611   1.397       .  A
C1610      F1615   1.358       .  S
C1611      C1612   1.417       .  A
C1611      F1617   1.359       .  S
C1612      C1613   1.421       .  A
C1613      C1614   1.400       .  A
C1613      F1616   1.351       .  S
C1614      F1618   1.358       .  S
C1621      C1622   1.401       .  A
C1621      C1626   1.402       .  A
C1621      F1639   1.358       .  S
C1622      C1627   1.487       .  S
C1622      C1623   1.401       .  A
C1623      C1624   1.402       .  A
C1623      F1628   1.358       .  S
C1624      C1625   1.421       .  A
C1624      F1640   1.351       .  S
C1625      C1626   1.419       .  A
C1626      F1629   1.358       .  S
C1627      C1630   1.406       .  A
C1627      C1634   1.404       .  A
C1630      C1631   1.405       .  A
C1630      F1635   1.357       .  S
C1631      C1632   1.411       .  A
C1631      F1637   1.358       .  S
C1632      C1633   1.411       .  A
C1633      C1634   1.399       .  A
C1633      F1636   1.358       .  S
C1634      F1638   1.358       .  S
C1641      C1642   1.402       .  A
C1641      C1646   1.398       .  A
C1641      F1659   1.358       .  S
C1642      C1647   1.476       .  S
C1642      C1643   1.403       .  A
C1643      C1644   1.397       .  A
C1643      F1648   1.358       .  S
C1644      C1645   1.410       .  A
C1644      F1660   1.358       .  S
C1645      C1646   1.412       .  A
C1646      F1649   1.358       .  S
C1647      C1650   1.404       .  A
C1647      C1654   1.406       .  A
C1650      C1651   1.397       .  A
C1650      F1655   1.358       .  S
C1651      C1652   1.405       .  A
C1651      F1657   1.358       .  S
C1652      C1653   1.404       .  A
C1653      C1654   1.399       .  A
C1653      F1656   1.357       .  S
C1654      F1658   1.358       .  S
C1661      C1662   1.410       .  A
C1661      C1666   1.403       .  A
C1661      F1679   1.358       .  S
C1662      C1667   1.491       .  S
C1662      C1663   1.408       .  A
C1663      C1664   1.397       .  A
C1663      F1668   1.358       .  S
C1664      C1665   1.405       .  A
C1664      F1680   1.358       .  S
C1665      C1666   1.407       .  A
C1666      F1669   1.357       .  S
C1667      C1670   1.410       .  A
C1667      C1674   1.409       .  A
C1670      C1671   1.401       .  A
C1670      F1675   1.358       .  S
C1671      C1672   1.402       .  A
C1671      F1677   1.358       .  S
C1672      C1673   1.403       .  A
C1673      C1674   1.400       .  A
C1673      F1676   1.358       .  S
C1674      F1678   1.358       .  S
C1681      C1682   1.407       .  A
C1681      C1686   1.399       .  A
C1681      F1699   1.358       .  S
C1682      C1687   1.484       .  S
C1682      C1683   1.406       .  A
C1683      C1684   1.401       .  A
C1683      F1688   1.358       .  S
C1684      C1685   1.406       .  A
C1684      F1700   1.358       .  S
C1685      C1686   1.406       .  A
C1686      F1689   1.358       .  S
C1687      C1690   1.407       .  A
C1687      C1694   1.407       .  A
C1690      C1691   1.400       .  A
C1690      F1695   1.358       .  S
C1691      C1692   1.405       .  A
C1691      F1697   1.358       .  S
C1692      C1693   1.405       .  A
C1693      C1694   1.400       .  A
C1693      F1696   1.357   1_455  S
C1694      F1698   1.358       .  S
C1701      C1702   1.406       .  A
C1701      C1706   1.401       .  A
C1701      F1719   1.357       .  S
C1702      C1707   1.485       .  S
C1702      C1703   1.406       .  A
C1703      C1704   1.398       .  A
C1703      F1708   1.358       .  S
C1704      C1705   1.409       .  A
C1704      F1720   1.358       .  S
C1705      C1706   1.408       .  A
C1706      F1709   1.358   1_565  S
C1707      C1710   1.401       .  A
C1707      C1714   1.402       .  A
C1710      C1711   1.399       .  A
C1710      F1715   1.358       .  S
C1711      C1712   1.418       .  A
C1711      F1717   1.358       .  S
C1712      C1713   1.420       .  A
C1713      C1714   1.400       .  A
C1713      F1716   1.352       .  S
C1714      F1718   1.358       .  S
C1721      C1722   1.406       .  A
C1721      C1726   1.401       .  A
C1721      F1739   1.358       .  S
C1722      C1727   1.479       .  S
C1722      C1723   1.403       .  A
C1723      C1724   1.396       .  A
C1723      F1728   1.358       .  S
C1724      C1725   1.407       .  A
C1724      F1740   1.358       .  S
C1725      C1726   1.406       .  A
C1726      F1729   1.357       .  S
C1727      C1730   1.403       .  A
C1727      C1734   1.402       .  A
C1730      C1731   1.400       .  A
C1730      F1735   1.358       .  S
C1731      C1732   1.412       .  A
C1731      F1737   1.358       .  S
C1732      C1733   1.413       .  A
C1733      C1734   1.399       .  A
C1733      F1736   1.358       .  S
C1734      F1738   1.358       .  S
C1741      C1742   1.407       .  A
C1741      C1746   1.401       .  A
C1741      F1759   1.358       .  S
C1742      C1747   1.487       .  S
C1742      C1743   1.406       .  A
C1743      C1744   1.401       .  A
C1743      F1748   1.358       .  S
C1744      C1745   1.408       .  A
C1744      F1760   1.358       .  S
C1745      C1746   1.407       .  A
C1746      F1749   1.357       .  S
C1747      C1750   1.406       .  A
C1747      C1754   1.406       .  A
C1750      C1751   1.402       .  A
C1750      F1755   1.358       .  S
C1751      C1752   1.409       .  A
C1751      F1757   1.357       .  S
C1752      C1753   1.410       .  A
C1753      C1754   1.399       .  A
C1753      F1756   1.358       .  S
C1754      F1758   1.358       .  S
C1761      C1762   1.408       .  A
C1761      C1766   1.400       .  A
C1761      F1779   1.358       .  S
C1762      C1767   1.484       .  S
C1762      C1763   1.408       .  A
C1763      C1764   1.398       .  A
C1763      F1768   1.358       .  S
C1764      C1765   1.402       .  A
C1764      F1780   1.358       .  S
C1765      C1766   1.402       .  A
C1766      F1769   1.358       .  S
C1767      C1770   1.408       .  A
C1767      C1774   1.405       .  A
C1770      C1771   1.402       .  A
C1770      F1775   1.358       .  S
C1771      C1772   1.407       .  A
C1771      F1777   1.357       .  S
C1772      C1773   1.407       .  A
C1773      C1774   1.396       .  A
C1773      F1776   1.358   1_565  S
C1774      F1778   1.358       .  S
C1781      C1782   1.405       .  A
C1781      C1786   1.400       .  A
C1781      F1799   1.358       .  S
C1782      C1787   1.491       .  S
C1782      C1783   1.407       .  A
C1783      C1784   1.403       .  A
C1783      F1788   1.358       .  S
C1784      C1785   1.414       .  A
C1784      F1800   1.358   1_455  S
C1785      C1786   1.414       .  A
C1786      F1789   1.358   1_565  S
C1787      C1790   1.406       .  A
C1787      C1794   1.403       .  A
C1790      C1791   1.406       .  A
C1790      F1795   1.358       .  S
C1791      C1792   1.419       .  A
C1791      F1797   1.353       .  S
C1792      C1793   1.416       .  A
C1793      C1794   1.397       .  A
C1793      F1796   1.359       .  S
C1794      F1798   1.358       .  S
C1801      C1802   1.405       .  A
C1801      C1806   1.400       .  A
C1801      F1819   1.358       .  S
C1802      C1807   1.484       .  S
C1802      C1803   1.407       .  A
C1803      C1804   1.399       .  A
C1803      F1808   1.358       .  S
C1804      C1805   1.407       .  A
C1804      F1820   1.358       .  S
C1805      C1806   1.409       .  A
C1806      F1809   1.358       .  S
C1807      C1810   1.407       .  A
C1807      C1814   1.407       .  A
C1810      C1811   1.400       .  A
C1810      F1815   1.358       .  S
C1811      C1812   1.404       .  A
C1811      F1817   1.358       .  S
C1812      C1813   1.402       .  A
C1813      C1814   1.399       .  A
C1813      F1816   1.357       .  S
C1814      F1818   1.358       .  S
C1821      C1822   1.404       .  A
C1821      C1826   1.402       .  A
C1821      F1839   1.358       .  S
C1822      C1827   1.483       .  S
C1822      C1823   1.403       .  A
C1823      C1824   1.397       .  A
C1823      F1828   1.358       .  S
C1824      C1825   1.411       .  A
C1824      F1840   1.357       .  S
C1825      C1826   1.411       .  A
C1826      F1829   1.355       .  S
C1827      C1830   1.407       .  A
C1827      C1834   1.404       .  A
C1830      C1831   1.403       .  A
C1830      F1835   1.358       .  S
C1831      C1832   1.406       .  A
C1831      F1837   1.357       .  S
C1832      C1833   1.406       .  A
C1833      C1834   1.397       .  A
C1833      F1836   1.358   1_455  S
C1834      F1838   1.358       .  S
C1841      C1842   1.406       .  A
C1841      C1846   1.399       .  A
C1841      F1859   1.358       .  S
C1842      C1847   1.484       .  S
C1842      C1843   1.405       .  A
C1843      C1844   1.401       .  A
C1843      F1848   1.358       .  S
C1844      C1845   1.409       .  A
C1844      F1860   1.357       .  S
C1845      C1846   1.407       .  A
C1846      F1849   1.358       .  S
C1847      C1850   1.406       .  A
C1847      C1854   1.407       .  A
C1850      C1851   1.399       .  A
C1850      F1855   1.358       .  S
C1851      C1852   1.406       .  A
C1851      F1857   1.358       .  S
C1852      C1853   1.405       .  A
C1853      C1854   1.401       .  A
C1853      F1856   1.358       .  S
C1854      F1858   1.358       .  S
