geometry optimzed in LAMMPS
_audit_creation_date              2020-11-30 
_audit_creation_method            'lammps2cif' 
_symmetry_space_group_name_H-M    'P1' 
_symmetry_Int_Tables_number       1 
_symmetry_cell_setting            triclinic 
loop_ 
_symmetry_equiv_pos_as_xyz 
  x,y,z 
_cell_length_a                    36.83182971 
_cell_length_b                    36.7688004577633 
_cell_length_c                    41.5540517039971 
_cell_angle_alpha                 89.73223244785797 
_cell_angle_beta                  89.80619322278713 
_cell_angle_gamma                 120.3827849064696 
loop_ 
_atom_site_label 
_atom_site_type_symbol 
_atom_site_fract_x 
_atom_site_fract_y 
_atom_site_fract_z 
_atom_site_charge 
O1          O  0.46546516  0.99336567  0.32169027    -0.80700
O2          O  0.53460005  0.98088761  0.18416068    -0.80700
O3          O  0.40519122  0.97414932  0.22933496    -0.80700
O4          O  0.51602806  0.94001011  0.28979891    -0.80700
O5          O  0.45405370  0.97016216  0.19930102    -0.80800
O6          O  0.53658234  0.98952645  0.32648167    -0.80700
O7          O  0.52002259  0.93590845  0.22252350    -0.80700
O8          O  0.43364403  0.94869276  0.28193855    -0.80700
C9          C  0.43448492  0.95909730  0.31134319     1.09000
C10         C  0.53078847  0.94674778  0.19333379     1.08900
C11         C  0.41560013  0.96155945  0.20423122     1.09000
C12         C  0.52678019  0.95236657  0.31830172     1.08900
O13         O  0.58421466  0.06913625  0.29324163    -0.80700
O14         O  0.50928869  0.04644795  0.18272568    -0.80800
O15         O  0.44488852  0.03091731  0.28171791    -0.80700
O16         O  0.59625352  0.01929297  0.22385706    -0.80700
O17         O  0.57197265  0.06130362  0.21241124    -0.80800
O18         O  0.51145878  0.07479659  0.28985509    -0.80700
O19         O  0.59665211  0.01696292  0.28867172    -0.80700
O20         O  0.47274174  0.04925522  0.22224112    -0.80800
Co21       Co  0.52462113  0.03160073  0.30485948     1.51500
Co22       Co  0.51610854  0.01112385  0.21185794     1.51700
Co23       Co  0.45748417  0.99658046  0.25033626     1.51600
Co24       Co  0.55311715  0.97928679  0.25659086     1.51500
O25         O  0.51586508  0.00770441  0.25969986    -1.42600
C26         C  0.60813134  0.05416874  0.29760853     1.08900
C27         C  0.48692525  0.05966320  0.19361219     1.09000
C28         C  0.47349427  0.06508462  0.29396203     1.08900
C29         C  0.60155137  0.05342558  0.21141457     1.08900
O30         O  0.97473695  0.50919266  0.33442847    -0.80700
O31         O  0.93758909  0.42588129  0.21797717    -0.80700
O32         O  0.97824127  0.56521961  0.22839853    -0.80700
O33         O  0.99211621  0.41792004  0.28554316    -0.80700
O34         O  0.93302035  0.49902130  0.22240062    -0.80800
O35         O  0.94700578  0.43970768  0.29503894    -0.80700
O36         O  0.98944004  0.41266502  0.22082857    -0.80700
O37         O  0.96307579  0.53554318  0.29021710    -0.80700
C38         C  0.95976418  0.52977139  0.32111475     1.09000
C39         C  0.95218717  0.40185325  0.21248754     1.08900
C40         C  0.94316344  0.53697217  0.21772103     1.09000
C41         C  0.95819628  0.41222795  0.29861578     1.08900
O42         O  0.02787499  0.48251210  0.31983775    -0.80700
O43         O  0.01279491  0.54406702  0.18693688    -0.80800
O44         O  0.03417166  0.60711502  0.27587008    -0.80700
O45         O  0.06631388  0.49161910  0.21469492    -0.80700
O46         O  0.01352527  0.47168137  0.18097906    -0.80800
O47         O  0.04517465  0.56045607  0.30150745    -0.80700
O48         O  0.07309560  0.49611292  0.28144246    -0.80700
O49         O  0.05943851  0.57539789  0.22568104    -0.80800
Co50       Co  0.99300912  0.49966203  0.29475939     1.51500
Co51       Co  0.97452045  0.48513303  0.20492223     1.51700
Co52       Co  0.01366945  0.55286037  0.25826128     1.51600
Co53       Co  0.02975924  0.45782548  0.25055152     1.51500
O54         O  0.00288273  0.49464486  0.24830172    -1.42600
C55         C  0.06237321  0.48671875  0.31054630     1.08900
C56         C  0.04814956  0.57423240  0.19661965     1.09000
C57         C  0.05042005  0.59800908  0.29912863     1.08900
C58         C  0.05097733  0.48062280  0.18683122     1.08900
O59         O  0.49255017  0.44247236  0.29887551    -0.80700
O60         O  0.54670187  0.52981709  0.17859103    -0.80700
O61         O  0.49255958  0.42739160  0.22089874    -0.80700
O62         O  0.58382874  0.50996273  0.28034013    -0.80700
O63         O  0.47366300  0.45834359  0.18411341    -0.80800
O64         O  0.54891930  0.52301174  0.31584013    -0.80700
O65         O  0.58056035  0.51153236  0.21305733    -0.80700
O66         O  0.43715164  0.39236868  0.27252671    -0.80700
C67         C  0.46245229  0.40353864  0.29601846     1.09000
C68         C  0.57638701  0.52279419  0.18513915     1.08900
C69         C  0.48102880  0.42932456  0.19241582     1.09000
C70         C  0.58031456  0.51983485  0.30877608     1.08900
O71         O  0.50707443  0.55918089  0.28642958    -0.80700
O72         O  0.43803170  0.50004885  0.22055471    -0.80800
O73         O  0.43270260  0.46038465  0.28688735    -0.80700
O74         O  0.58124760  0.58912153  0.21656569    -0.80700
O75         O  0.51579333  0.57501427  0.21479059    -0.80800
O76         O  0.47110832  0.49316046  0.32950189    -0.80700
O77         O  0.57559396  0.58490451  0.27998560    -0.80700
O78         O  0.41935083  0.43402368  0.22660341    -0.80800
Co79       Co  0.49751399  0.50145060  0.28978575     1.51500
Co80       Co  0.49383139  0.51593015  0.20212488     1.51700
Co81       Co  0.46845402  0.44700903  0.25469756     1.51600
Co82       Co  0.57689208  0.54539300  0.24741628     1.51500
O83         O  0.51350187  0.50612685  0.24450187    -1.42600
C84         C  0.54498063  0.58888152  0.28992071     1.08900
C85         C  0.41046300  0.46148413  0.21754962     1.09000
C86         C  0.43577980  0.46870721  0.31725286     1.08900
C87         C  0.55454256  0.59962848  0.20891180     1.08900
C88         C  0.81377093  0.45035825  0.00696153     0.41900
N89         N  0.78656214  0.48779373  0.01883068     0.00800
C90         C  0.73726662  0.61118988  0.42138752    -0.07100
H91         H  0.89720010  0.65780921  0.41030612     0.06300
C92         C  0.91916162  0.68270954  0.02886934    -0.07500
Co93       Co  0.76952826  0.52683012  0.45808989     0.74200
N94         N  0.84206530  0.60794825  0.43455939    -0.26600
Co95       Co  0.81745378  0.63584924  0.46482564     0.74100
C96         C  0.94218935  0.70488566  0.49853752     0.42000
N97         N  0.84167137  0.59190369  0.07168276     0.00400
N98         N  0.87536603  0.66848032  0.48914707     0.00500
N99         N  0.71012989  0.54069714  0.41964875    -0.47500
H100        H  0.81334832  0.46934180  0.43675629     0.06300
N101        N  0.82321330  0.56647191  0.43278912     0.00800
N102        N  0.79204856  0.66236864  0.49641763     0.00500
C103        C  0.76927924  0.70091588  0.00782664     0.42100
N104        N  0.81798616  0.55051319  0.06972636    -0.26100
C105        C  0.67488142  0.46572664  0.47428236    -0.07000
N106        N  0.80131261  0.46496321  0.03166114    -0.47200
N107        N  0.77342296  0.68426338  0.48874226    -0.47400
C108        C  0.64163369  0.44991422  0.00252708     0.41900
N109        N  0.74234792  0.55876658  0.43924566     0.00800
N110        N  0.74206584  0.55372152  0.06749811    -0.26100
N111        N  0.79759677  0.49524386  0.47733018    -0.26600
N112        N  0.76448316  0.59516453  0.07005588     0.00400
H113        H  0.68248181  0.50628855  0.08696320     0.06300
H114        H  0.78035762  0.69008702  0.06036005     0.06300
N115        N  0.75959174  0.60015073  0.44070648    -0.26700
N116        N  0.87854272  0.66152787  0.01959218    -0.26300
N117        N  0.70660178  0.48755748  0.01742456     0.00800
C118        C  0.87418777  0.58790191  0.39970411     0.42200
C119        C  0.83071750  0.53237491  0.09114760    -0.07500
N120        N  0.79938083  0.66377699  0.02203404    -0.26300
H121        H  0.92995865  0.68649790  0.05344507     0.06300
N122        N  0.84145724  0.55331597  0.41244792    -0.47500
H123        H  0.81494188  0.49884390  0.09581258     0.06300
C124        C  0.70864162  0.57640059  0.09664571     0.42000
C125        C  0.81287482  0.47354997  0.46248825    -0.07000
Co126      Co  0.76293560  0.51952073  0.04366181     0.73800
N127        N  0.86983306  0.60326150  0.09525227    -0.47200
C128        C  0.70450759  0.57119513  0.40753178     0.42300
N129        N  0.66722214  0.46653340  0.02836189    -0.47200
Co130      Co  0.82205677  0.62913561  0.04637699     0.73900
C131        C  0.78318372  0.68593947  0.03492568    -0.07500
C132        C  0.87539735  0.62458731  0.41435756    -0.07100
N133        N  0.71502146  0.48742650  0.48385537    -0.26600
N134        N  0.91279328  0.69206139  0.47525477    -0.47400
H135        H  0.74526133  0.64307174  0.41552505     0.06300
C136        C  0.70634647  0.53909977  0.08372372    -0.07500
Cl137      Cl  0.79258027  0.57581876  0.00357794    -0.50500
C138        C  0.86476023  0.56696732  0.10846205     0.42000
H139        H  0.66410310  0.46510920  0.45000295     0.06200
N140        N  0.74568997  0.61033298  0.08822212    -0.47200
C141        C  0.65391330  0.18721406  0.01260563     0.41900
N142        N  0.71975340  0.21472454  0.02105581     0.00800
C143        C  0.89059285  0.25613693  0.41718312    -0.07100
H144        H  0.77320956  0.10415497  0.40655573     0.06300
C145        C  0.78546959  0.08920231  0.04345040    -0.07500
Co146      Co  0.77985743  0.23281012  0.45984570     0.74200
N147        N  0.78014379  0.15632067  0.43539508    -0.26600
Co148      Co  0.83299856  0.17778233  0.46549399     0.74100
C149        C  0.77144513  0.05865623  0.01749780     0.42000
N150        N  0.77480585  0.16943889  0.07722873     0.00400
N151        N  0.80376411  0.11949069  0.49216858     0.00500
N152        N  0.85340706  0.28924750  0.42008310    -0.47500
H153        H  0.67949410  0.19624780  0.43885328     0.06300
N154        N  0.76071840  0.17820691  0.43439841     0.00800
N155        N  0.88544561  0.20224943  0.49700693     0.00500
C156        C  0.94734666  0.23296816  0.99821461     0.42100
N157        N  0.75650443  0.19214259  0.07386919    -0.26100
C158        C  0.81550073  0.32789115  0.47635708    -0.07000
N159        N  0.68347088  0.20291864  0.03559023    -0.47200
N160        N  0.92616251  0.22261072  0.48899366    -0.47400
C161        C  0.82198714  0.35428191  0.98993452     0.41900
N162        N  0.83842099  0.25689995  0.43998180     0.00800
N163        N  0.83521348  0.26842725  0.06460965    -0.26100
N164        N  0.72054585  0.20813706  0.47927518    -0.26600
N165        N  0.85503650  0.24734975  0.06896527     0.00400
H166        H  0.83902741  0.32263145  0.08666811     0.06300
H167        H  0.93574828  0.23478219  0.05275082     0.06300
N168        N  0.85909499  0.23622914  0.43926983    -0.26700
N169        N  0.80269093  0.12694031  0.02869993    -0.26300
N170        N  0.79951397  0.29335318  0.01103068     0.00800
C171        C  0.73010183  0.13211295  0.39764239     0.42200
C172        C  0.72570164  0.17996885  0.09547659    -0.07500
N173        N  0.88331901  0.20609881  0.02018080    -0.26300
H174        H  0.78283433  0.08387315  0.06919005     0.06300
N175        N  0.73120129  0.16494264  0.41245103    -0.47500
H176        H  0.70661969  0.19437865  0.09861800     0.06300
C177        C  0.88389955  0.29947163  0.10161914     0.42000
C178        C  0.68389181  0.19565309  0.46453494    -0.07000
Co179      Co  0.77780155  0.24261972  0.04266142     0.73800
N180        N  0.75774853  0.14159656  0.10130066    -0.47200
C181        C  0.88640197  0.29173077  0.40447784     0.42300
N182        N  0.81451202  0.33344267  0.01830864    -0.47200
Co183      Co  0.82954562  0.18680588  0.04926344     0.73900
C184        C  0.92406916  0.22582803  0.02853178    -0.07500
C185        C  0.76265592  0.12582908  0.41287575    -0.07100
N186        N  0.79930168  0.28769566  0.48594530    -0.26600
N187        N  0.78592093  0.08005811  0.48109697    -0.47400
H188        H  0.91140447  0.24525695  0.40913973     0.06300
C189        C  0.85200675  0.30232148  0.08318725    -0.07500
Cl190      Cl  0.79987430  0.20732918  0.00456382    -0.50500
C191        C  0.72636825  0.14665679  0.11381647     0.42000
H192        H  0.82177755  0.33898464  0.45169421     0.06200
N193        N  0.88413223  0.26452823  0.09165471    -0.47200
C194        C  0.36038916  0.80780490  0.99266171     0.41900
N195        N  0.29937409  0.78862044  0.01201330     0.00800
C196        C  0.12728212  0.74359027  0.41896490    -0.07100
H197        H  0.25499176  0.89760179  0.41013955     0.06300
C198        C  0.23481823  0.91746896  0.02717667    -0.07500
Co199      Co  0.23621062  0.76283627  0.46312503     0.74200
N200        N  0.24105336  0.84112099  0.43693285    -0.26600
Co201      Co  0.18435196  0.81987025  0.46440216     0.74100
C202        C  0.24344219  0.94107313  0.99663755     0.42000
N203        N  0.25257666  0.84540145  0.06798437     0.00400
N204        N  0.21154776  0.87717506  0.48958378     0.00500
N205        N  0.16269093  0.70829112  0.42104940    -0.47500
H206        H  0.34173232  0.79960785  0.45159939     0.06300
N207        N  0.25956748  0.81827098  0.43690813     0.00800
N208        N  0.12832315  0.79659798  0.49336533     0.00500
C209        C  0.06517233  0.76176264  0.01424523     0.42100
N210        N  0.27315929  0.82495279  0.06441169    -0.26100
C211        C  0.19926414  0.66790492  0.47967709    -0.07000
N212        N  0.33869966  0.80167097  0.02036803    -0.47200
N213        N  0.08805920  0.77805899  0.48419711    -0.47400
C214        C  0.20043573  0.64423685  0.01114969     0.41900
N215        N  0.17929928  0.74099960  0.44037550     0.00800
N216        N  0.19645447  0.74612805  0.07247308    -0.26100
N217        N  0.29330394  0.78554317  0.48704582    -0.26600
N218        N  0.17354291  0.76436599  0.07485770     0.00400
H219        H  0.19516731  0.69334649  0.09614179     0.06300
H220        H  0.08958701  0.77280600  0.06614152     0.06300
N221        N  0.15945287  0.76250190  0.43976177    -0.26700
N222        N  0.21413025  0.87621822  0.01903408    -0.26300
N223        N  0.22095929  0.70894680  0.02079455     0.00800
C224        C  0.29666956  0.86771002  0.40290140     0.42200
C225        C  0.30836541  0.84370213  0.08136000    -0.07500
N226        N  0.13340788  0.79471942  0.02621764    -0.26300
H227        H  0.24375256  0.92945793  0.05131927     0.06300
N228        N  0.29203365  0.83257783  0.41689547    -0.47500
H229        H  0.32917595  0.83130951  0.08478636     0.06300
C230        C  0.14641791  0.71227988  0.10849743     0.42000
C231        C  0.33251874  0.79845510  0.47648423    -0.07000
Co232      Co  0.24782161  0.76731566  0.04261557     0.73800
N233        N  0.27181161  0.87751794  0.08813709    -0.47200
C234        C  0.12964700  0.70743578  0.40669353     0.42300
N235        N  0.21282647  0.67312346  0.03467545    -0.47200
Co236      Co  0.19276316  0.82076902  0.04765659     0.73900
C237        C  0.09539971  0.77643143  0.04046849    -0.07500
C238        C  0.26290307  0.87384438  0.41628566    -0.07100
N239        N  0.21251081  0.70722804  0.48954079    -0.26600
N240        N  0.23009820  0.91530756  0.47616706    -0.47400
H241        H  0.10673788  0.75523559  0.41188463     0.06300
C242        C  0.18201205  0.71354190  0.09275940    -0.07500
Cl243      Cl  0.21411046  0.79064725  0.00379676    -0.50500
C244        C  0.30763280  0.87850907  0.09709911     0.42000
H245        H  0.19779630  0.65861974  0.45486797     0.06200
N246        N  0.14251715  0.74465422  0.09641235    -0.47200
C247        C  0.56649809  0.85009520  0.39758202     0.41900
N248        N  0.59332240  0.82334699  0.42831414     0.00800
C249        C  0.48367018  0.66361456  0.02644960    -0.07100
H250        H  0.47259223  0.79425329  0.06606761     0.06300
C251        C  0.62586693  0.87204131  0.08842638    -0.07500
Co252      Co  0.52372366  0.74562537  0.45993404     0.74200
N253        N  0.50284480  0.78269304  0.02600335    -0.26600
Co254      Co  0.53879382  0.75961858  0.04529403     0.74100
C255        C  0.58617968  0.86476950  0.10328457     0.42000
N256        N  0.67800415  0.87494687  0.01280324     0.00400
N257        N  0.57289476  0.81470024  0.07075719     0.00500
N258        N  0.47344625  0.65258309  0.48044308    -0.47500
H259        H  0.49917985  0.79809932  0.40942246     0.06300
N260        N  0.49158488  0.76968920  0.48317348     0.00800
N261        N  0.57514673  0.73810699  0.06495014     0.00500
C262        C  0.59227866  0.70809675  0.10091472     0.42100
N263        N  0.66579935  0.86583871  0.47396191    -0.26100
C264        C  0.53992010  0.69055136  0.41686454    -0.07000
N265        N  0.60360282  0.85559673  0.40842362    -0.47200
N266        N  0.55963799  0.70692897  0.08588054    -0.47400
C267        C  0.57452597  0.69587012  0.39683044     0.41900
N268        N  0.49479099  0.69255455  0.48949871     0.00800
N269        N  0.66841984  0.78732468  0.47868608    -0.26100
N270        N  0.55219648  0.79832743  0.43099010    -0.26600
N271        N  0.67749232  0.79310555  0.00870549     0.00400
H272        H  0.69046793  0.76078693  0.44277938     0.06300
H273        H  0.66293589  0.75712304  0.09471964     0.06300
N274        N  0.50511056  0.70465942  0.01827059    -0.26700
N275        N  0.61434443  0.83880569  0.06862297    -0.26300
N276        N  0.59778400  0.74648395  0.43091150     0.00800
C277        C  0.45912457  0.80528116  0.01406324     0.42200
C278        C  0.68740382  0.90399602  0.45981916    -0.07500
N279        N  0.61663882  0.76068101  0.06511305    -0.26300
H280        H  0.65777391  0.89700757  0.09284601     0.06300
N281        N  0.46721681  0.78155474  0.46902853    -0.47500
H282        H  0.69066089  0.90997598  0.43414665     0.06300
C283        C  0.70932970  0.76171591  0.98955727     0.42000
C284        C  0.53284716  0.81244993  0.41223477    -0.07000
Co285      Co  0.63234781  0.80635360  0.45249467     0.73800
N286        N  0.70057566  0.91435810  0.02353128    -0.47200
C287        C  0.46738719  0.64150668  0.99582907     0.42300
N288        N  0.60973024  0.73121698  0.40676119    -0.47200
Co289      Co  0.64809427  0.81778682  0.03942818     0.73900
C290        C  0.63063607  0.74368304  0.08709414    -0.07500
C291        C  0.47805615  0.79470811  0.04044361    -0.07100
N292        N  0.55691625  0.72358559  0.43619063    -0.26600
N293        N  0.55531004  0.82881340  0.09104865    -0.47400
H294        H  0.47971502  0.65109653  0.05063081     0.06300
C295        C  0.68891645  0.76840841  0.46765188    -0.07500
Cl296      Cl  0.58934537  0.79022561  0.00118300    -0.50500
C297        C  0.70492900  0.93399135  0.48616292     0.42000
H298        H  0.50647611  0.66940060  0.41430547     0.06200
N299        N  0.69899507  0.77427000  0.01719500    -0.47200
C300        C  0.21071750  0.54830532  0.99356734     0.41900
N301        N  0.23064233  0.50750619  0.01338876     0.00800
C302        C  0.26055008  0.37576378  0.41257515    -0.07100
H303        H  0.11182007  0.36062826  0.40740766     0.06300
C304        C  0.09491500  0.31354394  0.04183211    -0.07500
Co305      Co  0.25332582  0.47415003  0.45297596     0.74200
N306        N  0.17063938  0.40189747  0.43153809    -0.26600
Co307      Co  0.18943949  0.36537275  0.45836184     0.74100
C308        C  0.06713646  0.29567268  0.01458912     0.42000
N309        N  0.16949062  0.40738227  0.07270136     0.00400
N310        N  0.13448074  0.33776557  0.48578867     0.00500
N311        N  0.30241505  0.44703216  0.41226207    -0.47500
H312        H  0.21679017  0.53905550  0.43650011     0.06300
N313        N  0.19663530  0.44302154  0.42945366     0.00800
N314        N  0.21164144  0.33218003  0.48527431     0.00500
C315        C  0.24256228  0.29331431  0.01831884     0.42100
N316        N  0.19303449  0.44837663  0.06766109    -0.26100
C317        C  0.35080142  0.52606453  0.46669465    -0.07000
N318        N  0.21864704  0.53469787  0.02148338    -0.47200
N319        N  0.22820055  0.31075224  0.47255901    -0.47400
C320        C  0.37123359  0.53518164  0.00949113     0.41900
N321        N  0.26957666  0.43466277  0.43119915     0.00800
N322        N  0.26773272  0.44370841  0.07474922    -0.26100
N323        N  0.23420045  0.51158862  0.47514183    -0.26600
N324        N  0.24613835  0.40262030  0.07945217     0.00400
H325        H  0.31952765  0.49495321  0.09875772     0.06300
H326        H  0.23782986  0.31085101  0.07064113     0.06300
N327        N  0.24460257  0.39334999  0.43187673    -0.26700
N328        N  0.13366947  0.33353720  0.02921619    -0.26300
N329        N  0.30546613  0.49978039  0.01994250     0.00800
C330        C  0.14713454  0.43249235  0.39740880     0.42200
C331        C  0.17586907  0.46834846  0.08185655    -0.07500
N332        N  0.21166228  0.33008311  0.03217763    -0.26300
H333        H  0.08718541  0.31194305  0.06713443     0.06300
N334        N  0.18399697  0.46208729  0.40935941    -0.47500
H335        H  0.18926457  0.50214037  0.08283682     0.06300
C336        C  0.29365700  0.42673608  0.11606986     0.42000
C337        C  0.21979735  0.53499666  0.46196755    -0.07000
Co338      Co  0.24932530  0.47517237  0.04403090     0.73800
N339        N  0.13586540  0.39787082  0.09065534    -0.47200
C340        C  0.29857428  0.41163774  0.39999393     0.42300
N341        N  0.34269137  0.52247648  0.03331446    -0.47200
Co342      Co  0.18976069  0.36725978  0.05398107     0.73900
C343        C  0.23097879  0.31087123  0.04535857    -0.07500
C344        C  0.13758342  0.39204686  0.41213393    -0.07100
N345        N  0.31073914  0.50624326  0.47729416    -0.26600
N346        N  0.09571863  0.31621204  0.47428743    -0.47400
H347        H  0.24687123  0.34250709  0.40775221     0.06300
C348        C  0.29856455  0.46140121  0.09611634    -0.07500
Cl349      Cl  0.21934964  0.41547556  0.00759799    -0.50500
C350        C  0.13806147  0.43516003  0.09660521     0.42000
H351        H  0.36064301  0.52768591  0.44190938     0.06200
N352        N  0.26033559  0.39089913  0.10455328    -0.47200
C353        C  0.44309255  0.14437922  0.40323354     0.41900
N354        N  0.41854429  0.16919540  0.43912613     0.00800
C355        C  0.54453524  0.34051800  0.02155186    -0.07100
H356        H  0.54874980  0.20116141  0.05004748     0.06300
C357        C  0.40070248  0.13774896  0.08745813    -0.07500
Co358      Co  0.49201615  0.24566097  0.46866548     0.74200
N359        N  0.51936380  0.22016749  0.01415254    -0.26600
Co360      Co  0.48762209  0.24510114  0.03818734     0.74100
C361        C  0.44043877  0.14156497  0.09814797     0.42000
N362        N  0.34521947  0.13170820  0.01538755     0.00400
N363        N  0.45388970  0.19044338  0.06413862     0.00500
N364        N  0.54724911  0.34097459  0.48303106    -0.47500
H365        H  0.51121209  0.19111266  0.41808100     0.06300
N366        N  0.52196064  0.22067232  0.49565699     0.00800
N367        N  0.45489223  0.26891543  0.06150292     0.00500
C368        C  0.44206644  0.30521896  0.09465037     0.42100
N369        N  0.34778984  0.13299525  0.49051647    -0.26100
C370        C  0.47798653  0.30203262  0.42326802    -0.07000
N371        N  0.40711152  0.14135096  0.41524109    -0.47200
N372        N  0.47300601  0.30195729  0.08048117    -0.47400
C373        C  0.44296910  0.30063544  0.40625846     0.41900
N374        N  0.52448632  0.30197175  0.49452017     0.00800
N375        N  0.34793732  0.21484304  0.48941398    -0.26100
N376        N  0.45988094  0.19068594  0.44252471    -0.26600
N377        N  0.34497036  0.21258864  0.01125000     0.00400
H378        H  0.32058916  0.23801881  0.45450121     0.06300
H379        H  0.37023332  0.26048672  0.09025099     0.06300
N380        N  0.52133233  0.30048204  0.01182578    -0.26700
N381        N  0.41239417  0.16949802  0.06602212    -0.26300
N382        N  0.41905775  0.24869291  0.43970459     0.00800
C383        C  0.55607452  0.19187666  0.99592254     0.42200
C384        C  0.32606743  0.09211616  0.48124200    -0.07500
N385        N  0.41330388  0.24912318  0.06245800    -0.26300
H386        H  0.36878339  0.11540249  0.09482229     0.06300
N387        N  0.54590549  0.20571331  0.48525514    -0.47500
H388        H  0.32209834  0.08124161  0.45667789     0.06300
C389        C  0.30754192  0.23931237  0.99510815     0.42000
C390        C  0.47765393  0.17680648  0.42173285    -0.07000
Co391      Co  0.38203345  0.19069115  0.46399787     0.73800
N392        N  0.32412858  0.09403338  0.02952229    -0.47200
C393        C  0.55831076  0.36604190  0.99217676     0.42300
N394        N  0.40716745  0.26655519  0.41745316    -0.47200
Co395      Co  0.37784795  0.19038863  0.03929051     0.73900
C396        C  0.40204775  0.27026981  0.08276455    -0.07500
C397        C  0.54229112  0.20380630  0.02504395    -0.07100
N398        N  0.46043200  0.26873884  0.44278082    -0.26600
N399        N  0.47160697  0.17493772  0.08279233    -0.47400
H400        H  0.54934630  0.35086721  0.04631815     0.06300
C401        C  0.32549083  0.23273663  0.47931996    -0.07500
Cl402      Cl  0.43253244  0.21553651  0.99719838    -0.50500
C403        C  0.30907583  0.06453147  0.00613711     0.42000
H404        H  0.51151646  0.32217674  0.41977259     0.06200
N405        N  0.32292554  0.23002041  0.02158789    -0.47200
C406        C  0.28119052  0.25985108  0.99390449    -0.17000
C407        C  0.26828890  0.27211318  0.02006253    -0.32200
H408        H  0.27228522  0.26521927  0.97024781     0.12000
H409        H  0.27227297  0.26982407  0.46607184     0.12600
C410        C  0.43451857  0.59778062  0.98999497    -0.17000
C411        C  0.41359755  0.57135797  0.01412134    -0.32200
H412        H  0.48216731  0.58386016  0.51323268     0.12000
H413        H  0.42403096  0.58032850  0.03872980     0.12600
C414        C  0.26760469  0.98780356  0.98991104    -0.17000
C415        C  0.28448017  0.01781605  0.01286646    -0.32200
H416        H  0.27571309  0.00125116  0.46894404     0.12000
H417        H  0.28010575  0.00796362  0.03794197     0.12600
C418        C  0.20026421  0.60438222  0.01525101    -0.17000
C419        C  0.20181160  0.58276708  0.98996855    -0.32200
H420        H  0.20318074  0.59499502  0.03949588     0.12000
H421        H  0.19508140  0.59507032  0.46277685     0.12600
C422        C  0.40204766  0.81190107  0.99031955    -0.17000
C423        C  0.42269163  0.81118786  0.01656898    -0.32200
H424        H  0.41022866  0.81444598  0.53488262     0.12000
H425        H  0.41049538  0.81109044  0.04043305     0.12600
C426        C  0.74907363  0.01197163  0.02105861    -0.17000
C427        C  0.73648507  0.98655889  0.99539796    -0.32200
H428        H  0.74247118  0.99842291  0.04513670     0.12000
H429        H  0.73905379  0.99463138  0.45887655     0.12600
C430        C  0.99369724  0.25568763  0.99275079    -0.17000
C431        C  0.02062030  0.27136535  0.01743606    -0.32200
H432        H  0.00696761  0.26725068  0.54519389     0.12000
H433        H  0.00811052  0.26677897  0.04175595     0.12600
C434        C  0.61237383  0.18249560  0.01744330    -0.17000
C435        C  0.58916739  0.18132074  0.99244303    -0.32200
H436        H  0.60314331  0.18691660  0.46356974     0.12000
H437        H  0.59806214  0.17824074  0.96812413     0.12600
C438        C  0.99058799  0.72311662  0.99385320    -0.17000
C439        C  0.01834058  0.73702037  0.01828397    -0.32200
H440        H  0.00235040  0.73018001  0.96925529     0.12000
H441        H  0.00604099  0.73612679  0.54047102     0.12600
C442        C  0.74692666  0.72544330  0.01086494    -0.17000
C443        C  0.73229025  0.73783260  0.98595839    -0.32200
H444        H  0.74205508  0.73324401  0.03505489     0.12000
H445        H  0.73576811  0.72798586  0.47098285     0.12600
C446        C  0.82343361  0.41660815  0.01102557    -0.17000
C447        C  0.82642974  0.39587869  0.98584479    -0.32200
H448        H  0.83094864  0.40779316  0.46028749     0.12000
H449        H  0.82637922  0.40663644  0.96148633     0.12600
C450        C  0.59896161  0.44399204  0.00131763    -0.17000
C451        C  0.56441365  0.40888811  0.99107536    -0.32200
H452        H  0.60980401  0.47573312  0.50789274     0.12000
H453        H  0.53654094  0.41091429  0.98618159     0.12600
C454        C  0.43362926  0.38091527  0.15062884    -0.13900
C455        C  0.47014774  0.39523721  0.16932427     0.08200
C456        C  0.49601369  0.37808843  0.16452442    -0.13900
C457        C  0.48636203  0.34828164  0.14034061    -0.13900
C458        C  0.45002944  0.33432368  0.12140639     0.08200
C459        C  0.42328703  0.35019877  0.12718099    -0.13900
H460        H  0.41321963  0.39381028  0.15402226     0.12200
H461        H  0.52432866  0.38883468  0.17858605     0.12200
H462        H  0.50743944  0.33628298  0.13629483     0.12200
H463        H  0.39534706  0.34007894  0.11278068     0.12200
C464        C  0.41646330  0.34371203  0.33260294    -0.13900
C465        C  0.45693034  0.37327824  0.32128528     0.08200
C466        C  0.49223879  0.37814901  0.33750175    -0.13900
C467        C  0.48739007  0.35433180  0.36491021    -0.13900
C468        C  0.44705035  0.32529357  0.37694956     0.08200
C469        C  0.41152756  0.31988557  0.36038656    -0.13900
H470        H  0.38877505  0.34041976  0.32080020     0.12200
H471        H  0.52366623  0.40113132  0.32935352     0.12200
H472        H  0.51568107  0.35947812  0.37671814     0.12200
H473        H  0.38015261  0.29783244  0.36914676     0.12200
C474        C  0.64862182  0.53938813  0.17168540    -0.13900
C475        C  0.61119825  0.53759434  0.16237375     0.08200
C476        C  0.60954291  0.55590587  0.13303818    -0.13900
C477        C  0.64431332  0.57410695  0.11271434    -0.13900
C478        C  0.68083523  0.57431269  0.12167067     0.08200
C479        C  0.68335286  0.55777503  0.15137958    -0.13900
H480        H  0.65101849  0.52635729  0.19449264     0.12200
H481        H  0.58133151  0.55577412  0.12562840     0.12200
H482        H  0.64182015  0.58545876  0.08915681     0.12200
H483        H  0.71118729  0.55650566  0.15777806     0.12200
C484        C  0.61994032  0.56629487  0.35443509    -0.13900
C485        C  0.61467666  0.53500111  0.33226197     0.08200
C486        C  0.64216146  0.51932591  0.33308553    -0.13900
C487        C  0.67282181  0.53288952  0.35695867    -0.13900
C488        C  0.67716894  0.56318210  0.37968754     0.08200
C489        C  0.65130720  0.58063626  0.37776895    -0.13900
H490        H  0.59942844  0.57939426  0.35394604     0.12200
H491        H  0.63891863  0.49557509  0.31613783     0.12200
H492        H  0.69261272  0.51898866  0.35814956     0.12200
H493        H  0.65389867  0.60361322  0.39523872     0.12200
C494        C  0.53811121  0.64492428  0.17498793    -0.13900
C495        C  0.56793581  0.63557306  0.18685321     0.08200
C496        C  0.60840481  0.65496350  0.17264533    -0.13900
C497        C  0.61752023  0.68035629  0.14524815    -0.13900
C498        C  0.58626486  0.68651639  0.13189962     0.08200
C499        C  0.54714166  0.67002041  0.14770653    -0.13900
H500        H  0.50685490  0.63064671  0.18546817     0.12200
H501        H  0.63208713  0.64817690  0.18128281     0.12200
H502        H  0.64793349  0.69310670  0.13358052     0.12200
H503        H  0.52268491  0.67515342  0.13831317     0.12200
C504        C  0.59560471  0.65088186  0.32234856    -0.13900
C505        C  0.55430194  0.62452045  0.31108991     0.08200
C506        C  0.52119621  0.62714609  0.32518089    -0.13900
C507        C  0.52846983  0.65219253  0.35205612    -0.13900
C508        C  0.56895537  0.67501540  0.36553460     0.08200
C509        C  0.60286873  0.67590604  0.34951602    -0.13900
H510        H  0.62193624  0.64974823  0.31175594     0.12200
H511        H  0.48921717  0.60775794  0.31680216     0.12200
H512        H  0.50167800  0.65216800  0.36278572     0.12200
H513        H  0.63441678  0.69389394  0.35902487     0.12200
C514        C  0.36431595  0.48004080  0.18674064    -0.13900
C515        C  0.37265483  0.44901837  0.19781791     0.08200
C516        C  0.34941407  0.40798607  0.18510541    -0.13900
C517        C  0.32147550  0.39947709  0.15952241    -0.13900
C518        C  0.31637814  0.43186778  0.14654368     0.08200
C519        C  0.33646015  0.47152993  0.16150415    -0.13900
H520        H  0.38123078  0.51171834  0.19624785     0.12200
H521        H  0.35502954  0.38326941  0.19332592     0.12200
H522        H  0.30601180  0.36854052  0.14868166     0.12200
H523        H  0.33208486  0.49687449  0.15293941     0.12200
C524        C  0.40474837  0.44768412  0.37120661    -0.13900
C525        C  0.39890166  0.44843368  0.33793152     0.08200
C526        C  0.35821145  0.42797715  0.32509428    -0.13900
C527        C  0.32356920  0.41029113  0.34577013    -0.13900
C528        C  0.33002241  0.41267661  0.37903704     0.08200
C529        C  0.37034932  0.42981997  0.39163182    -0.13900
H530        H  0.43585445  0.46203444  0.38152434     0.12200
H531        H  0.35326023  0.42749276  0.29932593     0.12200
H532        H  0.29232874  0.39804655  0.33609045     0.12200
H533        H  0.37535786  0.43245393  0.41747005     0.11600
C534        C  0.88141587  0.51552127  0.18195079    -0.13900
C535        C  0.91955903  0.54765678  0.19418957     0.08200
C536        C  0.93793351  0.58808344  0.17981365    -0.13900
C537        C  0.91972157  0.59524899  0.15253304    -0.13900
C538        C  0.88286475  0.56213929  0.13917397     0.08200
C539        C  0.86335210  0.52263339  0.15497804    -0.13900
H540        H  0.86631859  0.48412048  0.19238869     0.12200
H541        H  0.96756396  0.61355391  0.18854521     0.12200
H542        H  0.93535216  0.62609459  0.14115569     0.12200
H543        H  0.83433559  0.49643727  0.14625740     0.12200
C544        C  0.91808777  0.56604920  0.32661844    -0.13900
C545        C  0.94031121  0.54844840  0.34086602     0.08200
C546        C  0.94643436  0.55135397  0.37429846    -0.13900
C547        C  0.92860995  0.56931139  0.39334880    -0.13900
C548        C  0.90456860  0.58475483  0.37931563     0.08200
C549        C  0.89990983  0.58376669  0.34584475    -0.13900
H550        H  0.91353367  0.56479852  0.30080977     0.12200
H551        H  0.96430061  0.53898435  0.38584682     0.12200
H552        H  0.93127520  0.56868638  0.41928926     0.12200
H553        H  0.88007994  0.59419514  0.33486363     0.12200
C554        C  0.95257390  0.34995142  0.17405766    -0.13900
C555        C  0.93034108  0.36682122  0.18967977     0.08200
C556        C  0.89046930  0.35640252  0.17843278    -0.13900
C557        C  0.87483305  0.33291288  0.15053029    -0.13900
C558        C  0.89866871  0.31929848  0.13326044     0.08200
C559        C  0.93679223  0.32629324  0.14598054    -0.13900
H560        H  0.98358350  0.35758947  0.18211702     0.12200
H561        H  0.87248426  0.36858930  0.19002516     0.12200
H562        H  0.84442383  0.32657795  0.14206016     0.12200
H563        H  0.95535922  0.31559445  0.13329882     0.12200
C564        C  0.95144501  0.34936619  0.32944126    -0.13900
C565        C  0.93634434  0.37713239  0.32252400     0.08200
C566        C  0.90434125  0.37507113  0.34208665    -0.13900
C567        C  0.88886853  0.34733528  0.36830589    -0.13900
C568        C  0.90453931  0.32032894  0.37591544     0.08200
C569        C  0.93568204  0.32121090  0.35585485    -0.13900
H570        H  0.97654945  0.35040122  0.31507577     0.12200
H571        H  0.89224068  0.39607841  0.33792177     0.12200
H572        H  0.86469302  0.34765203  0.38300394     0.12200
H573        H  0.94824553  0.30079254  0.36082855     0.12200
C574        C  0.05138653  0.44259293  0.13755590    -0.13900
C575        C  0.07367847  0.47077119  0.16260092     0.08200
C576        C  0.11657756  0.48511780  0.16646286    -0.13900
C577        C  0.13689874  0.47168360  0.14557656    -0.13900
C578        C  0.11452967  0.44321084  0.12092727     0.08200
C579        C  0.07171104  0.42864623  0.11691858    -0.13900
H580        H  0.01803887  0.43058067  0.13434451     0.12200
H581        H  0.13431612  0.50652628  0.18566605     0.12200
H582        H  0.17032928  0.48382613  0.14845723     0.12200
H583        H  0.05445220  0.40758871  0.09740516     0.12200
C584        C  0.08093867  0.42286359  0.37298593    -0.13900
C585        C  0.12482860  0.44275308  0.37295141     0.08200
C586        C  0.14834433  0.47669527  0.35158305    -0.13900
C587        C  0.12831781  0.49093234  0.33081911    -0.13900
C588        C  0.08455211  0.47238849  0.33192839     0.08200
C589        C  0.06099252  0.43800986  0.35296298    -0.13900
H590        H  0.06229128  0.39700275  0.38943222     0.12200
H591        H  0.18237869  0.49256878  0.35123413     0.12200
H592        H  0.14700907  0.51707855  0.31458489     0.12200
H593        H  0.02700703  0.42275941  0.35387319     0.12200
C594        C  0.05324723  0.62198479  0.15127049    -0.13900
C595        C  0.07336978  0.61049291  0.17466763     0.08200
C596        C  0.11719967  0.63500622  0.17760081    -0.13900
C597        C  0.14051820  0.66925780  0.15680446    -0.13900
C598        C  0.12047422  0.68066935  0.13336930     0.08200
C599        C  0.07654055  0.65709597  0.13106792    -0.13900
H600        H  0.01936938  0.60384789  0.14867117     0.12200
H601        H  0.13348737  0.62704279  0.19541934     0.12200
H602        H  0.17451459  0.68662730  0.15871825     0.12200
H603        H  0.06048677  0.66464024  0.11275794     0.12200
C604        C  0.09954500  0.62223244  0.34521786    -0.13900
C605        C  0.07354225  0.62890435  0.32447621     0.08200
C606        C  0.06551496  0.66172365  0.33095928    -0.13900
C607        C  0.08291154  0.68715583  0.35808198    -0.13900
C608        C  0.10877304  0.68015893  0.37885547     0.08200
C609        C  0.11701040  0.64761972  0.37201628    -0.13900
H610        H  0.10585067  0.59689792  0.34102159     0.12200
H611        H  0.04470388  0.66684488  0.31564872     0.12200
H612        H  0.07624377  0.71211374  0.36270774     0.12200
H613        H  0.13692001  0.64148989  0.38757323     0.12200
C614        C  0.32312220  0.92200079  0.14734102    -0.13900
C615        C  0.33476328  0.90178608  0.12433121     0.08200
C616        C  0.37183157  0.90055934  0.12867404    -0.13900
C617        C  0.39627475  0.91795548  0.15565174    -0.13900
C618        C  0.38513710  0.93827198  0.17876616     0.08200
C619        C  0.34832889  0.94029892  0.17452466    -0.13900
H620        H  0.29455016  0.92323667  0.14448955     0.12200
H621        H  0.38228544  0.88603110  0.11121232     0.12200
H622        H  0.42460955  0.91614015  0.15799158     0.12200
H623        H  0.33962965  0.95665536  0.19171891     0.12200
C624        C  0.37032817  0.89139962  0.33103627    -0.13900
C625        C  0.39763807  0.93508850  0.33355202     0.08200
C626        C  0.38954328  0.95675241  0.35798638    -0.13900
C627        C  0.35542187  0.93540812  0.37942271    -0.13900
C628        C  0.32915658  0.89158057  0.37763333     0.08200
C629        C  0.33704417  0.86982726  0.35325487    -0.13900
H630        H  0.37547797  0.87380247  0.31257533     0.12200
H631        H  0.40973500  0.99052356  0.36055485     0.12200
H632        H  0.35058541  0.95289976  0.39817032     0.12200
H633        H  0.31742701  0.83588052  0.35149830     0.12200
C634        C  0.56281638  0.94382466  0.14083998    -0.13900
C635        C  0.54416156  0.92436094  0.17061688     0.08200
C636        C  0.54243209  0.88643909  0.17873009    -0.13900
C637        C  0.55830081  0.86823218  0.15732599    -0.13900
C638        C  0.57738322  0.88816471  0.12796190     0.08200
C639        C  0.57938456  0.92608622  0.11989180    -0.13900
H640        H  0.56499853  0.97325248  0.13365925     0.12200
H641        H  0.52867257  0.87082651  0.20138802     0.12200
H642        H  0.55516050  0.83808852  0.16348747     0.12200
H643        H  0.59233440  0.94115689  0.09689475     0.12200
C644        C  0.58251118  0.92112094  0.37855195    -0.13900
C645        C  0.55959621  0.87722062  0.37573730     0.08200
C646        C  0.52524906  0.85819960  0.35469934    -0.13900
C647        C  0.51369311  0.88264818  0.33675080    -0.13900
C648        C  0.53582420  0.92648007  0.33996601     0.08200
C649        C  0.57040620  0.94570057  0.36093708    -0.13900
H650        H  0.60870101  0.93618029  0.39505737     0.12200
H651        H  0.50713681  0.82427647  0.35229633     0.12200
H652        H  0.48743282  0.86730052  0.32030730     0.12200
H653        H  0.58856299  0.97966040  0.36311491     0.12200
C654        C  0.67626781  0.14187108  0.15661033    -0.13900
C655        C  0.69920377  0.12497892  0.14224560     0.08200
C656        C  0.69363651  0.08669404  0.15413631    -0.13900
C657        C  0.66378834  0.06454997  0.17849432    -0.13900
C658        C  0.63907775  0.08040140  0.19128620     0.08200
C659        C  0.64653671  0.11983097  0.18066450    -0.13900
H660        H  0.68029432  0.17176178  0.14879640     0.12200
H661        H  0.71090462  0.07298973  0.14363521     0.12200
H662        H  0.65839412  0.03395975  0.18598238     0.12200
H663        H  0.62815423  0.13297833  0.19005226     0.12200
C664        C  0.65612554  0.11655543  0.33005827    -0.13900
C665        C  0.64545653  0.07678186  0.31840036     0.08200
C666        C  0.66645083  0.05654670  0.33078250    -0.13900
C667        C  0.69564283  0.07485394  0.35584794    -0.13900
C668        C  0.70393733  0.11344177  0.36878512     0.08200
C669        C  0.68479541  0.13452115  0.35492025    -0.13900
H670        H  0.64073965  0.13302643  0.32109060     0.12200
H671        H  0.65868655  0.02563418  0.32233416     0.12200
H672        H  0.71009270  0.05808432  0.36599318     0.12200
H673        H  0.69092854  0.16467409  0.36395453     0.12200
C674        C  0.48718698  0.11791455  0.11937514    -0.13900
C675        C  0.44943585  0.11818295  0.12245898     0.08200
C676        C  0.42426987  0.10045271  0.15000551    -0.13900
C677        C  0.43741985  0.08335752  0.17455209    -0.13900
C678        C  0.47569487  0.08384522  0.17155949     0.08200
C679        C  0.50012054  0.10096892  0.14352760    -0.13900
H680        H  0.50703174  0.13118529  0.09823880     0.12200
H681        H  0.39515029  0.10065720  0.15282776     0.12200
H682        H  0.41731115  0.06885555  0.19535310     0.12200
H683        H  0.52919440  0.10077645  0.14000021     0.12200
C684        C  0.41506080  0.09002255  0.35838046    -0.13900
C685        C  0.44835665  0.12598569  0.37267586     0.08200
C686        C  0.48845206  0.14423861  0.35799553    -0.13900
C687        C  0.49569898  0.12598523  0.33115524    -0.13900
C688        C  0.46314201  0.08878089  0.31785025     0.08200
C689        C  0.42238703  0.07156226  0.33125969    -0.13900
H690        H  0.38380054  0.07526308  0.36887787     0.12200
H691        H  0.51494838  0.17249642  0.36745526     0.12200
H692        H  0.52742776  0.14026608  0.32157398     0.12200
H693        H  0.39659076  0.04265613  0.32179709     0.12200
O694        O  0.45989406  0.98635493  0.81998647    -0.80700
O695        O  0.52990665  0.97679000  0.68845632    -0.80700
O696        O  0.40076834  0.96493911  0.73019963    -0.80700
O697        O  0.51781602  0.93369260  0.79225913    -0.80700
O698        O  0.44917602  0.95594878  0.70509318    -0.80800
O699        O  0.53127101  0.98508916  0.82657414    -0.80700
O700        O  0.51795500  0.92936535  0.72470441    -0.80700
O701        O  0.42976222  0.93911206  0.78153767    -0.80700
C702        C  0.42991062  0.95095201  0.81028930     1.09000
C703        C  0.52707835  0.94221416  0.69588517     1.08900
C704        C  0.41160068  0.95079388  0.70653397     1.09000
C705        C  0.52552007  0.94871401  0.82042846     1.08900
O706        O  0.57857604  0.06241337  0.79130056    -0.80700
O707        O  0.50286506  0.02801165  0.67473780    -0.80800
O708        O  0.43992427  0.02062460  0.77789500    -0.80700
O709        O  0.59226469  0.01348725  0.72445636    -0.80700
O710        O  0.56688085  0.05598369  0.71795055    -0.80800
O711        O  0.50577120  0.06615544  0.78441786    -0.80700
O712        O  0.59411216  0.01224901  0.78958743    -0.80700
O713        O  0.47166460  0.03659910  0.71734962    -0.80800
Co714      Co  0.51907649  0.02465889  0.80286606     1.51500
Co715      Co  0.50887002  0.00812093  0.71439973     1.51700
Co716      Co  0.45372619  0.98527089  0.74902335     1.51600
Co717      Co  0.55195073  0.97258716  0.75779692     1.51500
O718        O  0.51147575  0.99592062  0.76016787    -1.42600
C719        C  0.60292981  0.04877281  0.79838395     1.08900
C720        C  0.48224960  0.04322374  0.68722681     1.09000
C721        C  0.46781113  0.05609021  0.78828203     1.08900
C722        C  0.59575153  0.04735489  0.71299015     1.08900
O723        O  0.97168781  0.49669465  0.83218066    -0.80700
O724        O  0.94123012  0.42133000  0.71875828    -0.80700
O725        O  0.97702107  0.56043143  0.72718820    -0.80700
O726        O  0.98961967  0.40694094  0.78442966    -0.80700
O727        O  0.93658346  0.49395246  0.71989130    -0.80800
O728        O  0.94667602  0.43175651  0.79039421    -0.80700
O729        O  0.99002669  0.40426670  0.71948908    -0.80700
O730        O  0.96608829  0.53415216  0.79175298    -0.80700
C731        C  0.95834819  0.52003804  0.82120531     1.09000
C732        C  0.95296225  0.39538016  0.71236235     1.08900
C733        C  0.94453767  0.53134941  0.71481972     1.09000
C734        C  0.95522476  0.40265552  0.79520119     1.08900
O735        O  0.02606398  0.46799726  0.82095095    -0.80700
O736        O  0.01815633  0.53874184  0.68682717    -0.80800
O737        O  0.04135844  0.59289947  0.78174296    -0.80700
O738        O  0.07030688  0.48016477  0.71651412    -0.80700
O739        O  0.01916018  0.46569175  0.68210891    -0.80800
O740        O  0.04774224  0.54561620  0.80741402    -0.80700
O741        O  0.07354888  0.48070774  0.78421482    -0.80700
O742        O  0.05804015  0.57715222  0.72687465    -0.80800
Co743      Co  0.99517836  0.48977837  0.79486537     1.51500
Co744      Co  0.98014860  0.47999313  0.70549289     1.51700
Co745      Co  0.00953029  0.54488747  0.75527690     1.51600
Co746      Co  0.03071823  0.44690995  0.75111402     1.51500
O747        O  0.01033705  0.48997855  0.74945396    -1.42600
C748        C  0.06092039  0.47137986  0.81310861     1.08900
C749        C  0.04956270  0.57277244  0.69721277     1.09000
C750        C  0.05418506  0.58302819  0.80577345     1.08900
C751        C  0.05581264  0.47219421  0.68819021     1.08900
O752        O  0.48820010  0.44820911  0.79866995    -0.80700
O753        O  0.54998623  0.54078401  0.67998208    -0.80700
O754        O  0.49189060  0.43698774  0.72288392    -0.80700
O755        O  0.57942451  0.51461198  0.78171410    -0.80700
O756        O  0.47635829  0.46800776  0.68392736    -0.80800
O757        O  0.54586091  0.52779827  0.81823663    -0.80700
O758        O  0.58014808  0.51962493  0.71541825    -0.80700
O759        O  0.43299741  0.39972835  0.77117188    -0.80700
C760        C  0.45818028  0.40943905  0.79459637     1.09000
C761        C  0.57688367  0.52995623  0.68701451     1.08900
C762        C  0.48218521  0.43854555  0.69383178     1.09000
C763        C  0.57659455  0.52360070  0.81047668     1.08900
O764        O  0.50465967  0.56614515  0.79031114    -0.80700
O765        O  0.43732198  0.50823228  0.71738219    -0.80800
O766        O  0.42768443  0.46656654  0.78811601    -0.80700
O767        O  0.58051218  0.59786561  0.71979140    -0.80700
O768        O  0.51495539  0.58319602  0.71621518    -0.80800
O769        O  0.46613084  0.49717927  0.83106788    -0.80700
O770        O  0.57305076  0.59109292  0.78353748    -0.80700
O771        O  0.41800129  0.44235104  0.72461653    -0.80800
Co772      Co  0.49421736  0.50791102  0.79160770     1.51500
Co773      Co  0.49492338  0.52522374  0.70214655     1.51700
Co774      Co  0.46498945  0.45510568  0.75528876     1.51600
Co775      Co  0.57469418  0.55246041  0.74997180     1.51500
O776        O  0.51121555  0.51450558  0.74606214    -1.42600
C777        C  0.54276105  0.59555033  0.79366952     1.08900
C778        C  0.41036490  0.46967781  0.71314433     1.09000
C779        C  0.43067327  0.47240030  0.81902115     1.08900
C780        C  0.55386885  0.60864268  0.71222871     1.08900
C781        C  0.82388668  0.45433262  0.48842000     0.41900
N782        N  0.79913531  0.49091167  0.50865962     0.00800
C783        C  0.74183379  0.60909900  0.91679565    -0.07100
H784        H  0.89899263  0.64235601  0.91133052     0.06300
C785        C  0.91891362  0.68636607  0.52883712    -0.07500
Co786      Co  0.76515277  0.52191464  0.96184634     0.74200
N787        N  0.84191606  0.59796089  0.93680322    -0.26600
Co788      Co  0.81982898  0.63207713  0.96244729     0.74100
C789        C  0.94383822  0.69829816  0.99888980     0.42000
N790        N  0.84804810  0.59072467  0.56899118     0.00400
N791        N  0.87740139  0.66358146  0.98782840     0.00500
N792        N  0.71099279  0.53805090  0.91746709    -0.47500
H793        H  0.80901968  0.45991970  0.95243629     0.06300
N794        N  0.82109429  0.55635876  0.93835016     0.00800
N795        N  0.79664419  0.66452293  0.99034971     0.00500
C796        C  0.76301679  0.69580288  0.51674008     0.42100
N797        N  0.82910453  0.54973841  0.56376992    -0.26100
C798        C  0.66927285  0.46461454  0.97436267    -0.07000
N799        N  0.81403389  0.46598137  0.51645763    -0.47200
N800        N  0.77865019  0.68645516  0.98073047    -0.47400
C801        C  0.64968509  0.44787166  0.50350334     0.41900
N802        N  0.74308822  0.55567480  0.93734600     0.00800
N803        N  0.74889466  0.54361829  0.56915788    -0.26100
N804        N  0.78806556  0.48884846  0.98719951    -0.26600
N805        N  0.76612879  0.58482862  0.57253131     0.00400
H806        H  0.69415723  0.49006806  0.58969654     0.06300
H807        H  0.77465407  0.68125875  0.56836806     0.06300
N808        N  0.76240843  0.59734606  0.93737817    -0.26700
N809        N  0.87786408  0.66425934  0.52060034    -0.26300
N810        N  0.71600012  0.48349468  0.51519557     0.00800
C811        C  0.87302750  0.57067132  0.90802431     0.42200
C812        C  0.84460759  0.53221892  0.58323783    -0.07500
N813        N  0.79472384  0.65881023  0.52787782    -0.26300
H814        H  0.93099086  0.68828953  0.55283721     0.06300
N815        N  0.83852156  0.53899509  0.92158931    -0.47500
H816        H  0.83177217  0.49861165  0.58584390     0.06300
C817        C  0.71132169  0.55745989  0.60254822     0.42000
C818        C  0.80468994  0.46573454  0.97722842    -0.07000
Co819      Co  0.77332203  0.51655463  0.53940950     0.73800
N820        N  0.87515694  0.60192311  0.59326336    -0.47200
C821        C  0.70779994  0.56930504  0.90365482     0.42300
N822        N  0.67773843  0.46118250  0.52793249    -0.47200
Co823      Co  0.82244964  0.62573871  0.54812063     0.73900
C824        C  0.77719982  0.67884842  0.54262854    -0.07500
C825        C  0.87565011  0.61021995  0.91750147    -0.07100
N826        N  0.70835222  0.48765744  0.98586877    -0.26600
N827        N  0.91558701  0.68496654  0.97468339    -0.47400
H828        H  0.75135783  0.64117586  0.91006966     0.06300
C829        C  0.71458257  0.52384452  0.58755803    -0.07500
Cl830      Cl  0.79582925  0.57642457  0.50268001    -0.50500
C831        C  0.87457046  0.56631990  0.60330849     0.42000
H832        H  0.66089477  0.46042524  0.94917426     0.06200
N833        N  0.74410911  0.59468539  0.59232766    -0.47200
C834        C  0.65391981  0.18576920  0.49060388     0.41900
N835        N  0.71473375  0.20616365  0.51059431     0.00800
C836        C  0.87393911  0.24441959  0.91078419    -0.07100
H837        H  0.75628977  0.09478338  0.91322144     0.06300
C838        C  0.77938901  0.08049841  0.53519048    -0.07500
Co839      Co  0.76890054  0.22704940  0.96127712     0.74200
N840        N  0.76424764  0.14720394  0.94193952    -0.26600
Co841      Co  0.82282699  0.17323129  0.96495364     0.74100
C842        C  0.77005637  0.05387465  0.50718417     0.42000
N843        N  0.75904744  0.15128963  0.57080187     0.00400
N844        N  0.80013893  0.12128941  0.99714689     0.00500
N845        N  0.83515335  0.27614272  0.91156776    -0.47500
H846        H  0.66305833  0.18340089  0.95788086     0.06300
N847        N  0.74348556  0.16772799  0.94261458     0.00800
N848        N  0.88092347  0.20117346  0.98856343     0.00500
C849        C  0.94818860  0.23459510  0.51690767     0.42100
N850        N  0.73922547  0.17213406  0.56537658    -0.26100
C851        C  0.80923963  0.32348389  0.96446813    -0.07000
N852        N  0.67527180  0.19350967  0.51853697    -0.47200
N853        N  0.91842519  0.21690345  0.97458764    -0.47400
C854        C  0.81990301  0.35105427  0.50606412     0.41900
N855        N  0.82174332  0.24570160  0.93325599     0.00800
N856        N  0.81687319  0.25026970  0.57181354    -0.26100
N857        N  0.71606827  0.20833473  0.98984202    -0.26600
N858        N  0.83833523  0.23072909  0.57552343     0.00400
H859        H  0.81666675  0.30135732  0.59645281     0.06300
H860        H  0.92254798  0.22455818  0.56862441     0.06300
N861        N  0.84350760  0.22616701  0.93367968    -0.26700
N862        N  0.79971647  0.12007317  0.52382425    -0.26300
N863        N  0.79408485  0.28575545  0.51735931     0.00800
C864        C  0.70923847  0.11866467  0.90861587     0.42200
C865        C  0.70456758  0.15629864  0.58330761    -0.07500
N866        N  0.87962312  0.20069627  0.52859903    -0.26300
H867        H  0.77091559  0.07142636  0.56011929     0.06300
N868        N  0.71100047  0.15194859  0.92321495    -0.47500
H869        H  0.68511509  0.17041463  0.58532887     0.06300
C870        C  0.86244774  0.27908055  0.61135315     0.42000
C871        C  0.67545279  0.19096192  0.98203213    -0.07000
Co872      Co  0.76598267  0.22862526  0.54130787     0.73800
N873        N  0.73979314  0.12197611  0.59362931    -0.47200
C874        C  0.86809241  0.27791594  0.89618624     0.42300
N875        N  0.80561864  0.32275503  0.53032854    -0.47200
Co876      Co  0.81975868  0.17507049  0.55007141     0.73900
C877        C  0.91733367  0.21997559  0.54298279    -0.07500
C878        C  0.74468592  0.11507623  0.92107529    -0.07100
N879        N  0.79555815  0.28679147  0.97984487    -0.26600
N880        N  0.78146511  0.08073805  0.98944235    -0.47400
H881        H  0.89615048  0.23459858  0.90438225     0.06300
C882        C  0.83006888  0.28139930  0.59308532    -0.07500
Cl883      Cl  0.79976809  0.20348989  0.50416909    -0.50500
C884        C  0.70476302  0.12322556  0.60241852     0.42000
H885        H  0.80812623  0.32763844  0.93879038     0.06200
N886        N  0.86597248  0.24682746  0.59929583    -0.47200
C887        C  0.35763232  0.80760649  0.50590937     0.41900
N888        N  0.29382559  0.78629928  0.51868142     0.00800
C889        C  0.12126391  0.73471382  0.92218013    -0.07100
H890        H  0.24920653  0.89131629  0.90676044     0.06300
C891        C  0.23471522  0.91934166  0.53028255    -0.07500
Co892      Co  0.23432373  0.75897305  0.96117417     0.74200
N893        N  0.23593084  0.83522145  0.93385350    -0.26600
Co894      Co  0.18180592  0.81510751  0.96368516     0.74100
C895        C  0.24559818  0.94399129  0.50003706     0.42000
N896        N  0.24683769  0.84289712  0.57134203     0.00400
N897        N  0.21001353  0.87385972  0.98735036     0.00500
N898        N  0.15682351  0.69969851  0.92545946    -0.47500
H899        H  0.33563312  0.79442084  0.94082980     0.06300
N900        N  0.25394096  0.81197802  0.93319990     0.00800
N901        N  0.12839836  0.79247284  0.99462161     0.00500
C902        C  0.06433165  0.76762333  0.51165394     0.42100
N903        N  0.26535265  0.82036167  0.56883060    -0.26100
C904        C  0.20217887  0.66579497  0.98096445    -0.07000
N905        N  0.33131062  0.79886477  0.53086431    -0.47200
N906        N  0.08786393  0.77264915  0.98640450    -0.47400
C907        C  0.19296668  0.64363022  0.50935167     0.41900
N908        N  0.17516956  0.73458401  0.94229403     0.00800
N909        N  0.18658818  0.74313629  0.57246065    -0.26100
N910        N  0.29385240  0.78467270  0.98067067    -0.26600
N911        N  0.16571210  0.76343230  0.57515232     0.00400
H912        H  0.18285209  0.68919403  0.59608484     0.06300
H913        H  0.08658605  0.77724783  0.56397015     0.06300
N914        N  0.15530972  0.75601942  0.94108888    -0.26700
N915        N  0.21377867  0.87833277  0.52138247    -0.26300
N916        N  0.21371415  0.70778150  0.52116593     0.00800
C917        C  0.28945529  0.86004684  0.89813852     0.42200
C918        C  0.30060756  0.83803636  0.58565203    -0.07500
N919        N  0.13174274  0.79821264  0.52511099    -0.26300
H920        H  0.24226081  0.93051303  0.55473760     0.06300
N921        N  0.28527034  0.82537150  0.91236644    -0.47500
H922        H  0.32077678  0.82493162  0.58927297     0.06300
C923        C  0.13645185  0.71102814  0.60838318     0.42000
C924        C  0.33077476  0.79634552  0.96630508    -0.07000
Co925      Co  0.23981076  0.76425618  0.54536722     0.73800
N926        N  0.26767321  0.87574001  0.59058142    -0.47200
C927        C  0.12242827  0.69695921  0.91215950     0.42300
N928        N  0.20289339  0.67064046  0.53397381    -0.47200
Co929      Co  0.18894209  0.82143186  0.54885642     0.73900
C930        C  0.09339037  0.78103219  0.53842980    -0.07500
C931        C  0.25683335  0.86724948  0.91248596    -0.07100
N932        N  0.21540103  0.70565592  0.98946900    -0.26600
N933        N  0.22706133  0.91157802  0.97328147    -0.47400
H934        H  0.09967910  0.74515427  0.91531592     0.06300
C935        C  0.17060003  0.71011334  0.59232271    -0.07500
Cl936      Cl  0.21213385  0.79212315  0.50537969    -0.50500
C937        C  0.30243777  0.87473351  0.59970941     0.42000
H938        H  0.19770059  0.65447293  0.95650721     0.06200
N939        N  0.13478095  0.74498971  0.59696791    -0.47200
C940        C  0.58171674  0.88188261  0.91695909     0.41900
N941        N  0.60304514  0.84287738  0.93721731     0.00800
C942        C  0.47730340  0.65813662  0.53433298    -0.07100
H943        H  0.46470897  0.79829218  0.54712100     0.06300
C944        C  0.61539019  0.87224406  0.58160047    -0.07500
Co945      Co  0.53070024  0.76516223  0.96415411     0.74200
N946        N  0.49374093  0.77470711  0.51453794    -0.26600
Co947      Co  0.53028117  0.75706586  0.54136128     0.74100
C948        C  0.57518524  0.86537210  0.59528348     0.42000
N949        N  0.66905469  0.87058682  0.50553000     0.00400
N950        N  0.56292005  0.81617855  0.56177467     0.00500
N951        N  0.47982118  0.67099651  0.97267074    -0.47500
H952        H  0.51307068  0.83573521  0.93043096     0.06300
N953        N  0.50017703  0.78549759  0.99469909     0.00800
N954        N  0.56787864  0.74121103  0.56726903     0.00500
C955        C  0.58713801  0.71809334  0.60694083     0.42100
N956        N  0.67480961  0.87364111  0.98113317    -0.26100
C957        C  0.54068467  0.71473956  0.91129406    -0.07000
N958        N  0.61615747  0.87825251  0.92064970    -0.47200
N959        N  0.55348100  0.71399815  0.59129525    -0.47400
C960        C  0.57446868  0.71659208  0.89211575     0.41900
N961        N  0.50210676  0.70772340  0.98693810     0.00800
N962        N  0.67282346  0.79306723  0.97707752    -0.26100
N963        N  0.56210736  0.82286049  0.94257392    -0.26600
N964        N  0.67186849  0.79032528  0.51041784     0.00400
H965        H  0.69292136  0.76931983  0.93760943     0.06300
H966        H  0.65732065  0.76579515  0.59735121     0.06300
N967        N  0.49765344  0.69682849  0.52091851    -0.26700
N968        N  0.60451615  0.83968347  0.56117402    -0.26300
N969        N  0.60095688  0.76319946  0.92936871     0.00800
C970        C  0.45261893  0.79591686  0.49230871     0.42200
C971        C  0.69597106  0.91287863  0.96922741    -0.07500
N972        N  0.60944311  0.76377811  0.56621679    -0.26300
H973        H  0.64719325  0.89538768  0.58827107     0.06300
N974        N  0.47371916  0.79822031  0.98636762    -0.47500
H975        H  0.69820774  0.92155219  0.94409040     0.06300
C976        C  0.70571366  0.75878830  0.49599094     0.42000
C977        C  0.54604598  0.84519368  0.93081035    -0.07000
Co978      Co  0.63896134  0.81838266  0.95559923     0.73800
N979        N  0.69223797  0.91095675  0.51388414    -0.47200
C980        C  0.46011919  0.62850550  0.50741938     0.42300
N981        N  0.61132679  0.74750690  0.90449466    -0.47200
Co982      Co  0.64002126  0.81688135  0.53626551     0.73900
C983        C  0.62464812  0.75092818  0.59033785    -0.07500
C984        C  0.46974874  0.79113698  0.52288267    -0.07100
N985        N  0.55987433  0.74464407  0.93321357    -0.26600
N986        N  0.54478233  0.83005534  0.58174277    -0.47400
H987        H  0.47508593  0.65135260  0.55983484     0.06300
C988        C  0.69194604  0.77426387  0.96315121    -0.07500
Cl989      Cl  0.58180499  0.78153503  0.49762496    -0.50500
C990        C  0.71282878  0.93979457  0.99706139     0.42000
H991        H  0.50699751  0.69614309  0.90818525     0.06200
N992        N  0.69381343  0.77314329  0.52186682    -0.47200
C993        C  0.20971074  0.55275035  0.48916948     0.41900
N994        N  0.23363914  0.51429713  0.50667291     0.00800
C995        C  0.26057532  0.36676238  0.92336803    -0.07100
H996        H  0.10946493  0.34940683  0.91739419     0.06300
C997        C  0.09555499  0.31715989  0.52859868    -0.07500
Co998      Co  0.25107297  0.46452926  0.96244445     0.74200
N999        N  0.16883302  0.39119694  0.94078070    -0.26600
Co1000     Co  0.18760034  0.35577146  0.97005261     0.74100
C1001       C  0.06901192  0.30208777  0.49963653     0.42000
N1002       N  0.17535152  0.41108564  0.56391141     0.00400
N1003       N  0.13132480  0.32907858  0.99762997     0.00500
N1004       N  0.30111365  0.43792442  0.92305586    -0.47500
H1005       H  0.21838361  0.53184486  0.94172581     0.06300
N1006       N  0.19486544  0.43232889  0.93786447     0.00800
N1007       N  0.21041868  0.32498531  0.00053892     0.00500
C1008       C  0.24378769  0.29826827  0.49674625     0.42100
N1009       N  0.19883072  0.45244909  0.56038122    -0.26100
C1010       C  0.34779617  0.51836008  0.97939594    -0.07000
N1011       N  0.21955467  0.53928114  0.51633196    -0.47200
N1012       N  0.22896368  0.30357290  0.99131278    -0.47400
C1013       C  0.37696363  0.54412392  0.49535157     0.41900
N1014       N  0.26863217  0.42489959  0.94258243     0.00800
N1015       N  0.27463429  0.44852786  0.56223522    -0.26100
N1016       N  0.23179318  0.50337777  0.98206335    -0.26600
N1017       N  0.25277192  0.40729894  0.56693446     0.00400
H1018       H  0.32756153  0.49959628  0.58500725     0.06300
H1019       H  0.24407054  0.31263518  0.55100578     0.06300
N1020       N  0.24409440  0.38348953  0.94340730    -0.26700
N1021       N  0.13570423  0.33888975  0.51755769    -0.26300
N1022       N  0.31109957  0.51026186  0.50873817     0.00800
C1023       C  0.14499747  0.42093254  0.90557469     0.42200
C1024       C  0.18202949  0.47104678  0.57724634    -0.07500
N1025       N  0.21541353  0.33536515  0.51697122    -0.26300
H1026       H  0.08614344  0.31254536  0.55364973     0.06300
N1027       N  0.18207532  0.45076861  0.91719111    -0.47500
H1028       H  0.19521222  0.50464304  0.57985590     0.06300
C1029       C  0.30222808  0.43164226  0.60265617     0.42000
C1030       C  0.21973030  0.52799092  0.96742642    -0.07000
Co1031     Co  0.25470965  0.48172597  0.53477737     0.73800
N1032       N  0.14234363  0.40005397  0.58301173    -0.47200
C1033       C  0.29849496  0.40335066  0.91025303     0.42300
N1034       N  0.34973455  0.53173040  0.52047868    -0.47200
Co1035     Co  0.19435318  0.37186922  0.54215972     0.73900
C1036       C  0.23528780  0.31465085  0.52653557    -0.07500
C1037       C  0.13562002  0.38090160  0.92129024    -0.07100
N1038       N  0.30716143  0.49658953  0.98850667    -0.26600
N1039       N  0.09160234  0.30634672  0.98767927    -0.47400
H1040       H  0.24692822  0.33368641  0.91784027     0.06300
C1041       C  0.30664759  0.46600318  0.58256770    -0.07500
Cl1042     Cl  0.22299476  0.42314940  0.49716212    -0.50500
C1043       C  0.14458762  0.43657167  0.59167524     0.42000
H1044       H  0.35923451  0.52307935  0.95485050     0.06200
N1045       N  0.26788932  0.39580921  0.59172633    -0.47200
C1046       C  0.43738061  0.13682886  0.89519743     0.41900
N1047       N  0.41362408  0.16275869  0.93055003     0.00800
C1048       C  0.54566185  0.34033099  0.53712717    -0.07100
H1049       H  0.54648640  0.20139645  0.56500273     0.06300
C1050       C  0.39688901  0.13321248  0.59350200    -0.07500
Co1051     Co  0.48748572  0.24186865  0.95641923     0.74200
N1052       N  0.51945501  0.22044122  0.52724763    -0.26600
Co1053     Co  0.48693769  0.24446275  0.55057204     0.74100
C1054       C  0.43584271  0.13604493  0.60461863     0.42000
N1055       N  0.34621331  0.13369190  0.52234042     0.00400
N1056       N  0.45161530  0.18868762  0.57442813     0.00500
N1057       N  0.54105022  0.33845777  0.96754592    -0.47500
H1058       H  0.50581987  0.18538507  0.90790636     0.06300
N1059       N  0.51913077  0.21911237  0.98254541     0.00800
N1060       N  0.45362428  0.26725860  0.57367016     0.00500
C1061       C  0.43978093  0.30321836  0.60617718     0.42100
N1062       N  0.34553851  0.12927276  0.98360090    -0.26100
C1063       C  0.47058843  0.29506630  0.91089753    -0.07000
N1064       N  0.40156358  0.13362669  0.90763284    -0.47200
N1065       N  0.47113922  0.29992005  0.59297066    -0.47400
C1066       C  0.43465775  0.29307706  0.89543822     0.41900
N1067       N  0.52056946  0.29991106  0.98023576     0.00800
N1068       N  0.34498799  0.20982896  0.97949801    -0.26100
N1069       N  0.45501216  0.18525345  0.93268484    -0.26600
N1070       N  0.34717140  0.21446781  0.52124763     0.00400
H1071       H  0.31693184  0.22834275  0.94202351     0.06300
H1072       H  0.36805845  0.25965326  0.59947197     0.06300
N1073       N  0.52255660  0.30095841  0.52610313    -0.26700
N1074       N  0.41013512  0.16743314  0.57450698    -0.26300
N1075       N  0.41276519  0.24140510  0.92851212     0.00800
C1076       C  0.55867744  0.19419298  0.51194409     0.42200
C1077       C  0.32336833  0.08805812  0.97546665    -0.07500
N1078       N  0.41208912  0.24770723  0.57350536    -0.26300
H1079       H  0.36449439  0.10957313  0.59858449     0.06300
N1080       N  0.54090929  0.20272468  0.97058770    -0.47500
H1081       H  0.31829600  0.07606459  0.95119283     0.06300
C1082       C  0.31063711  0.24348305  0.50897229     0.42000
C1083       C  0.47237598  0.17062396  0.91231666    -0.07000
Co1084     Co  0.37798903  0.18496398  0.95501415     0.73800
N1085       N  0.32469977  0.09543649  0.53539537    -0.47200
C1086       C  0.56291192  0.36710508  0.50860473     0.42300
N1087       N  0.39938992  0.25872481  0.90692021    -0.47200
Co1088     Co  0.37789833  0.19043406  0.54824183     0.73900
C1089       C  0.40014584  0.26878738  0.59330822    -0.07500
C1090       C  0.54165337  0.20426714  0.53968581    -0.07100
N1091       N  0.45420740  0.26226013  0.93068879    -0.26600
N1092       N  0.46808971  0.17106933  0.59201154    -0.47400
H1093       H  0.54903618  0.34944992  0.56216906     0.06300
C1094       C  0.32223746  0.22592055  0.96732324    -0.07500
Cl1095     Cl  0.43455321  0.21776924  0.50773629    -0.50500
C1096       C  0.31066199  0.06708644  0.51130141     0.42000
H1097       H  0.50386153  0.31580365  0.90640888     0.06200
N1098       N  0.32560903  0.23105885  0.53358913    -0.47200
C1099       C  0.28561566  0.26487621  0.51436989    -0.17000
C1100       C  0.26829222  0.27640105  0.49087503    -0.32200
H1101       H  0.28123867  0.27117493  0.53915547     0.12000
H1102       H  0.27728996  0.26700333  0.04376238     0.12600
C1103       C  0.45431045  0.58574677  0.50795205    -0.17000
C1104       C  0.41939445  0.54993811  0.49915085    -0.32200
H1105       H  0.42332726  0.58948309  0.96547723     0.12000
H1106       H  0.42143708  0.52154130  0.49768614     0.12600
C1107       C  0.27036006  0.99080517  0.49389811    -0.17000
C1108       C  0.28596264  0.02023040  0.51723451    -0.32200
H1109       H  0.27159653  0.99767254  0.96485088     0.12000
H1110       H  0.28028784  0.00973790  0.54217948     0.12600
C1111       C  0.19383115  0.60427345  0.51264457    -0.17000
C1112       C  0.19752588  0.58486283  0.48682968    -0.32200
H1113       H  0.19653288  0.59405024  0.53667370     0.12000
H1114       H  0.19968401  0.59239770  0.96565990     0.12600
C1115       C  0.39886771  0.81151857  0.51039401    -0.17000
C1116       C  0.41868969  0.80480573  0.48639024    -0.32200
H1117       H  0.41395995  0.81135624  0.96647418     0.12000
H1118       H  0.40697310  0.80113825  0.46195977     0.12600
C1119       C  0.74515928  0.00671953  0.50854708    -0.17000
C1120       C  0.73140613  0.98099713  0.48295531    -0.32200
H1121       H  0.73673842  0.99254728  0.53244494     0.12000
H1122       H  0.74305944  0.00062812  0.97148060     0.12600
C1123       C  0.99490193  0.26049063  0.52080507    -0.17000
C1124       C  0.02227596  0.27596713  0.49595816    -0.32200
H1125       H  0.00567389  0.25994772  0.96826306     0.12000
H1126       H  0.01007462  0.26923891  0.47159510     0.12600
C1127       C  0.61333549  0.18382845  0.48741383    -0.17000
C1128       C  0.59234042  0.18417179  0.51354787    -0.32200
H1129       H  0.60385643  0.18630108  0.04171172     0.12000
H1130       H  0.60286027  0.18129983  0.53732787     0.12600
C1131       C  0.98875735  0.72996130  0.49207349    -0.17000
C1132       C  0.01742680  0.74335020  0.51580164    -0.32200
H1133       H  0.99947971  0.73739575  0.46725731     0.12000
H1134       H  0.00638923  0.73005810  0.04282441     0.12600
C1135       C  0.74104168  0.72075832  0.52036745    -0.17000
C1136       C  0.72902210  0.73500188  0.49486676    -0.32200
H1137       H  0.73432432  0.72703642  0.54449047     0.12000
H1138       H  0.73694690  0.72998308  0.96172958     0.12600
C1139       C  0.82943149  0.41772264  0.48460098    -0.17000
C1140       C  0.82654776  0.39368487  0.50983868    -0.32200
H1141       H  0.82287761  0.40533898  0.03534897     0.12000
H1142       H  0.82423689  0.40346114  0.53405650     0.12600
C1143       C  0.60887186  0.44574120  0.50719778    -0.17000
C1144       C  0.57086583  0.41052294  0.50773313    -0.32200
H1145       H  0.59700708  0.47234844  0.00376218     0.12000
H1146       H  0.54344357  0.41413965  0.50962564     0.12600
C1147       C  0.43628825  0.38937482  0.65174145    -0.13900
C1148       C  0.47106374  0.40298283  0.67228587     0.08200
C1149       C  0.49348095  0.38164478  0.67249463    -0.13900
C1150       C  0.48227030  0.34820104  0.65141359    -0.13900
C1151       C  0.44760639  0.33478228  0.63075138     0.08200
C1152       C  0.42415239  0.35498216  0.63150491    -0.13900
H1153       H  0.41847837  0.40538938  0.65135702     0.12200
H1154       H  0.52023412  0.39156547  0.68823804     0.12200
H1155       H  0.50091106  0.33300332  0.65101110     0.12200
H1156       H  0.39774809  0.34544417  0.61547341     0.12200
C1157       C  0.41574553  0.33754699  0.81940426    -0.13900
C1158       C  0.45254912  0.37753951  0.81846770     0.08200
C1159       C  0.48201427  0.38920553  0.84316086    -0.13900
C1160       C  0.47479571  0.36190013  0.86853354    -0.13900
C1161       C  0.43827410  0.32197433  0.86967369     0.08200
C1162       C  0.40859465  0.30978352  0.84502358    -0.13900
H1163       H  0.39221488  0.32814835  0.80078766     0.12200
H1164       H  0.51036673  0.41993848  0.84337049     0.12200
H1165       H  0.49800191  0.37239699  0.88745986     0.12200
H1166       H  0.38047266  0.27890861  0.84537582     0.12200
C1167       C  0.62575883  0.56947760  0.64184945    -0.13900
C1168       C  0.60861568  0.53505539  0.66334002     0.08200
C1169       C  0.62569289  0.50865146  0.66483343    -0.13900
C1170       C  0.65942985  0.51643594  0.64506169    -0.13900
C1171       C  0.67723611  0.55132335  0.62412077     0.08200
C1172       C  0.66034910  0.57790066  0.62256473    -0.13900
H1173       H  0.61339723  0.59065454  0.64084340     0.12200
H1174       H  0.61313553  0.48224187  0.68149300     0.12200
H1175       H  0.67207159  0.49552332  0.64651051     0.12200
H1176       H  0.67345999  0.60461474  0.60618604     0.12200
C1177       C  0.63508020  0.51598395  0.83376473    -0.13900
C1178       C  0.61151145  0.53618447  0.83330379     0.08200
C1179       C  0.62233368  0.57008705  0.85435552    -0.13900
C1180       C  0.65561660  0.58299154  0.87601243    -0.13900
C1181       C  0.67770411  0.56132726  0.87757641     0.08200
C1182       C  0.66741371  0.52797533  0.85612871    -0.13900
H1183       H  0.62764233  0.49017711  0.81756355     0.12200
H1184       H  0.60499862  0.58667522  0.85400862     0.12200
H1185       H  0.66279738  0.60849733  0.89246452     0.12200
H1186       H  0.68413982  0.51078029  0.85697357     0.12200
C1187       C  0.53738650  0.65682232  0.68238847    -0.13900
C1188       C  0.56740646  0.64655180  0.69236307     0.08200
C1189       C  0.60741014  0.66660286  0.67753293    -0.13900
C1190       C  0.61537063  0.69258684  0.65063316    -0.13900
C1191       C  0.58335803  0.69857293  0.63851239     0.08200
C1192       C  0.54523695  0.68242424  0.65555797    -0.13900
H1193       H  0.50657088  0.64232577  0.69361066     0.12200
H1194       H  0.63125695  0.65932798  0.68486593     0.12200
H1195       H  0.64514516  0.70526175  0.63802419     0.12200
H1196       H  0.52040251  0.68764207  0.64712243     0.12200
C1197       C  0.59388078  0.65853035  0.82544985    -0.13900
C1198       C  0.55270536  0.63251148  0.81376874     0.08200
C1199       C  0.52039991  0.63863023  0.82513481    -0.13900
C1200       C  0.52829778  0.66777389  0.84935019    -0.13900
C1201       C  0.56863003  0.69121508  0.86301543     0.08200
C1202       C  0.60173860  0.68760058  0.84995322    -0.13900
H1203       H  0.61958620  0.65468320  0.81707383     0.12200
H1204       H  0.48852467  0.61950891  0.81639291     0.12200
H1205       H  0.50219694  0.67064928  0.85802167     0.12200
H1206       H  0.63315266  0.70558449  0.85976596     0.12200
C1207       C  0.36978015  0.48802214  0.67495385    -0.13900
C1208       C  0.37573293  0.45706098  0.68948884     0.08200
C1209       C  0.35308843  0.41552862  0.67739247    -0.13900
C1210       C  0.32763417  0.40620104  0.64986552    -0.13900
C1211       C  0.32417861  0.43816810  0.63411995     0.08200
C1212       C  0.34434371  0.47872690  0.64790168    -0.13900
H1213       H  0.38633362  0.52016937  0.68362591     0.12200
H1214       H  0.35692406  0.39078841  0.68806821     0.12200
H1215       H  0.31230231  0.37461427  0.64012529     0.12200
H1216       H  0.34149591  0.50410168  0.63747848     0.12200
C1217       C  0.40269354  0.44398001  0.87324901    -0.13900
C1218       C  0.39452652  0.44870189  0.84093640     0.08200
C1219       C  0.35263001  0.42934525  0.83050441    -0.13900
C1220       C  0.31958375  0.40900054  0.85290196    -0.13900
C1221       C  0.32834701  0.40698697  0.88554518     0.08200
C1222       C  0.36995689  0.42335052  0.89526405    -0.13900
H1223       H  0.43465330  0.45736939  0.88184921     0.12200
H1224       H  0.34557508  0.43184337  0.80559685     0.12200
H1225       H  0.28756095  0.39775939  0.84525133     0.12200
H1226       H  0.37730406  0.42311901  0.92047166     0.11600
C1227       C  0.88514546  0.51043428  0.67651922    -0.13900
C1228       C  0.92204922  0.54203558  0.69049430     0.08200
C1229       C  0.94102085  0.58338754  0.67763003    -0.13900
C1230       C  0.92495338  0.59212278  0.64996091    -0.13900
C1231       C  0.88953013  0.55968240  0.63476765     0.08200
C1232       C  0.86894780  0.51922047  0.64917542    -0.13900
H1233       H  0.86973946  0.47852956  0.68593524     0.12200
H1234       H  0.96982013  0.60860043  0.68781908     0.12200
H1235       H  0.94124782  0.62356198  0.63966000     0.12200
H1236       H  0.84061217  0.49359156  0.63895242     0.12200
C1237       C  0.92898466  0.56611045  0.83428638    -0.13900
C1238       C  0.93575014  0.53297363  0.84288559     0.08200
C1239       C  0.92437320  0.51490203  0.87369287    -0.13900
C1240       C  0.90615493  0.52940216  0.89546492    -0.13900
C1241       C  0.89935695  0.56236553  0.88690625     0.08200
C1242       C  0.91097686  0.58093547  0.85637626    -0.13900
H1243       H  0.93792490  0.58074865  0.81071886     0.12200
H1244       H  0.92946031  0.48950291  0.88101859     0.12200
H1245       H  0.89652468  0.51429209  0.91887909     0.12200
H1246       H  0.90464179  0.60557880  0.84926760     0.12200
C1247       C  0.94368749  0.33710489  0.67586204    -0.13900
C1248       C  0.92654408  0.35905573  0.69140223     0.08200
C1249       C  0.88620084  0.35052676  0.68272290    -0.13900
C1250       C  0.86484895  0.32317050  0.65751936    -0.13900
C1251       C  0.88318730  0.30351070  0.64050262     0.08200
C1252       C  0.92206711  0.30939634  0.65064093    -0.13900
H1253       H  0.97483326  0.34315664  0.68190863     0.12200
H1254       H  0.87196877  0.36663934  0.69431336     0.12200
H1255       H  0.83436692  0.31839435  0.65085363     0.12200
H1256       H  0.93667954  0.29435171  0.63802451     0.12200
C1257       C  0.94108341  0.33676813  0.82523001    -0.13900
C1258       C  0.92954071  0.36718225  0.81798107     0.08200
C1259       C  0.89714594  0.36675363  0.83608601    -0.13900
C1260       C  0.87749786  0.33752628  0.86109566    -0.13900
C1261       C  0.88956614  0.30774615  0.86887161     0.08200
C1262       C  0.92129434  0.30735504  0.85039208    -0.13900
H1263       H  0.96633998  0.33647200  0.81204800     0.12200
H1264       H  0.88787553  0.38998602  0.83168954     0.12200
H1265       H  0.85314777  0.33885766  0.87479753     0.12200
H1266       H  0.93119399  0.28480725  0.85562453     0.12200
C1267       C  0.05721026  0.43985956  0.63576408    -0.13900
C1268       C  0.07872496  0.46388493  0.66291611     0.08200
C1269       C  0.12118509  0.47634216  0.66708924    -0.13900
C1270       C  0.14200299  0.46575105  0.64428102    -0.13900
C1271       C  0.12053191  0.44182471  0.61734486     0.08200
C1272       C  0.07799046  0.42865991  0.61318594    -0.13900
H1273       H  0.02418760  0.42920212  0.63220646     0.12200
H1274       H  0.13833587  0.49444708  0.68787430     0.12200
H1275       H  0.17514837  0.47663979  0.64745755     0.12200
H1276       H  0.06134006  0.41092655  0.59210123     0.12200
C1277       C  0.07881866  0.41296547  0.88131350    -0.13900
C1278       C  0.12257661  0.43059420  0.88040022     0.08200
C1279       C  0.14612085  0.46175659  0.85701519    -0.13900
C1280       C  0.12640051  0.47498908  0.83490195    -0.13900
C1281       C  0.08278286  0.45840257  0.83646173     0.08200
C1282       C  0.05920142  0.42714140  0.85981991    -0.13900
H1283       H  0.06005845  0.38941963  0.89931158     0.12200
H1284       H  0.18005251  0.47608734  0.85593590     0.12200
H1285       H  0.14528109  0.49873506  0.81705786     0.12200
H1286       H  0.02533733  0.41323927  0.86123306     0.12200
C1287       C  0.05049976  0.61378130  0.64879466    -0.13900
C1288       C  0.07190854  0.60945769  0.67521469     0.08200
C1289       C  0.11303312  0.64202189  0.68161223    -0.13900
C1290       C  0.13294595  0.67714588  0.66103507    -0.13900
C1291       C  0.11166746  0.68113430  0.63437704     0.08200
C1292       C  0.07009514  0.64941124  0.62870862    -0.13900
H1293       H  0.01846823  0.58952493  0.64363261     0.12200
H1294       H  0.13012993  0.63976073  0.70195731     0.12200
H1295       H  0.16559942  0.70058862  0.66521538     0.12200
H1296       H  0.05361891  0.65102748  0.60770235     0.12200
C1297       C  0.09085116  0.60430318  0.85828521    -0.13900
C1298       C  0.07218791  0.61302553  0.83254784     0.08200
C1299       C  0.06617170  0.64805126  0.83439346    -0.13900
C1300       C  0.08014353  0.67466021  0.86117408    -0.13900
C1301       C  0.10034908  0.66652059  0.88630430     0.08200
C1302       C  0.10480423  0.63075988  0.88479903    -0.13900
H1303       H  0.09479847  0.57705948  0.85789173     0.12200
H1304       H  0.05044135  0.65471710  0.81523989     0.12200
H1305       H  0.07645646  0.70206441  0.86171178     0.12200
H1306       H  0.12009429  0.62364333  0.90402066     0.12200
C1307       C  0.31887988  0.91466197  0.65102754    -0.13900
C1308       C  0.33138028  0.89865203  0.62552972     0.08200
C1309       C  0.37018979  0.90019801  0.62675425    -0.13900
C1310       C  0.39549539  0.91585180  0.65363020    -0.13900
C1311       C  0.38265675  0.93069571  0.67972161     0.08200
C1312       C  0.34446612  0.93064155  0.67808205    -0.13900
H1313       H  0.28889255  0.91343448  0.65052127     0.12200
H1314       H  0.38073194  0.88849736  0.60708296     0.12200
H1315       H  0.42522379  0.91650311  0.65383840     0.12200
H1316       H  0.33444529  0.94301398  0.69762075     0.12200
C1317       C  0.37012237  0.88299805  0.83245607    -0.13900
C1318       C  0.39270058  0.92712934  0.83164872     0.08200
C1319       C  0.37909436  0.94916637  0.85134073    -0.13900
C1320       C  0.34380393  0.92758044  0.87157479    -0.13900
C1321       C  0.32233125  0.88351913  0.87334914     0.08200
C1322       C  0.33579880  0.86146036  0.85354521    -0.13900
H1323       H  0.37979933  0.86525997  0.81754920     0.12200
H1324       H  0.39591120  0.98325106  0.85113939     0.12200
H1325       H  0.33452997  0.94532837  0.88685211     0.12200
H1326       H  0.31991467  0.82737033  0.85462839     0.12200
C1327       C  0.57662896  0.94665529  0.65248687    -0.13900
C1328       C  0.54081772  0.92161817  0.67191904     0.08200
C1329       C  0.51860370  0.87796856  0.66737766    -0.13900
C1330       C  0.53071108  0.85999551  0.64289928    -0.13900
C1331       C  0.56613756  0.88504997  0.62309952     0.08200
C1332       C  0.58957383  0.92850066  0.62867860    -0.13900
H1333       H  0.59451536  0.98047148  0.65562677     0.12200
H1334       H  0.49102005  0.85798073  0.68192325     0.12200
H1335       H  0.51197692  0.82630711  0.63920950     0.12200
H1336       H  0.61673520  0.94859852  0.61377431     0.12200
C1337       C  0.55513218  0.92750668  0.90093385    -0.13900
C1338       C  0.57564463  0.90577400  0.89225850     0.08200
C1339       C  0.57767341  0.89604105  0.86005835    -0.13900
C1340       C  0.55850249  0.90750231  0.83655552    -0.13900
C1341       C  0.53763627  0.92908525  0.84523690     0.08200
C1342       C  0.53644519  0.93940688  0.87750351    -0.13900
H1343       H  0.55207198  0.93360774  0.92599911     0.12200
H1344       H  0.59199412  0.87763257  0.85341744     0.12200
H1345       H  0.56082210  0.90040239  0.81162134     0.12200
H1346       H  0.52116488  0.95678321  0.88452344     0.12200
C1347       C  0.64791794  0.11494005  0.64006121    -0.13900
C1348       C  0.67881420  0.10463702  0.63199282     0.08200
C1349       C  0.68491193  0.07807154  0.65287299    -0.13900
C1350       C  0.65980443  0.06143605  0.68068650    -0.13900
C1351       C  0.62847229  0.07141809  0.68822021     0.08200
C1352       C  0.62356036  0.09904161  0.66783210    -0.13900
H1353       H  0.64159375  0.13490156  0.62477774     0.12200
H1354       H  0.70847270  0.06964290  0.64744757     0.12200
H1355       H  0.66389007  0.03959161  0.69566200     0.12200
H1356       H  0.59928838  0.10678650  0.67236932     0.12200
C1357       C  0.63797275  0.10486226  0.83923920    -0.13900
C1358       C  0.63582429  0.07066716  0.82283306     0.08200
C1359       C  0.65982927  0.05312371  0.83402156    -0.13900
C1360       C  0.68428686  0.06863848  0.86181420    -0.13900
C1361       C  0.68471024  0.10159835  0.87890338     0.08200
C1362       C  0.66178754  0.11987127  0.86701745    -0.13900
H1363       H  0.61957047  0.11878831  0.83157281     0.12200
H1364       H  0.65838506  0.02632811  0.82204954     0.12200
H1365       H  0.70187323  0.05422696  0.87031844     0.12200
H1366       H  0.66167555  0.14564258  0.87943493     0.12200
C1367       C  0.47864424  0.10477552  0.61717725    -0.13900
C1368       C  0.44315348  0.10785142  0.62445295     0.08200
C1369       C  0.42015917  0.08974758  0.65274434    -0.13900
C1370       C  0.43370320  0.06968345  0.67415170    -0.13900
C1371       C  0.46984236  0.06744130  0.66696950     0.08200
C1372       C  0.49186936  0.08469766  0.63819535    -0.13900
H1373       H  0.49683990  0.11884202  0.59538744     0.12200
H1374       H  0.39310198  0.09258575  0.65876290     0.12200
H1375       H  0.41579907  0.05556603  0.69602893     0.12200
H1376       H  0.51950095  0.08289118  0.63201027     0.12200
C1377       C  0.40873885  0.08193616  0.85094933    -0.13900
C1378       C  0.44207628  0.11833153  0.86468926     0.08200
C1379       C  0.48182830  0.13709047  0.84945638    -0.13900
C1380       C  0.48907482  0.11851582  0.82298285    -0.13900
C1381       C  0.45680233  0.08056117  0.81061080     0.08200
C1382       C  0.41603726  0.06326109  0.82401921    -0.13900
H1383       H  0.37767835  0.06702939  0.86176798     0.12200
H1384       H  0.50824986  0.16591687  0.85825661     0.12200
H1385       H  0.52067799  0.13294951  0.81317157     0.12200
H1386       H  0.39033665  0.03401037  0.81487990     0.12200
loop_ 
_geom_bond_atom_site_label_1 
_geom_bond_atom_site_label_2 
_geom_bond_distance 
_geom_bond_site_symmetry_2 
_ccdc_geom_bond_type 
O1            C9   1.276       .  A
O1          Co21   2.024   1_565  S
O2           C10   1.248       .  A
O2          Co22   1.949   1_565  S
O3           C11   1.277       .  A
O3          Co23   1.888       .  S
O4           C12   1.262       .  A
O4          Co24   1.957       .  S
O5           C11   1.301       .  A
O5          Co22   2.073   1_565  S
O6           C12   1.272       .  A
O6          Co21   2.018   1_565  S
O7           C10   1.273       .  A
O7          Co24   2.025       .  S
O8            C9   1.278       .  A
O8          Co23   2.001       .  S
C9          C625   1.498       .  S
C10         C635   1.492       .  S
C11         C618   1.469       .  S
C12         C648   1.464       .  S
O13          C26   1.266       .  A
O13         Co21   1.969       .  S
O14          C27   1.234       .  A
O14         Co22   1.880       .  S
O15          C28   1.272       .  A
O15         Co23   2.028   1_545  S
O16          C29   1.275       .  A
O16         Co24   2.035   1_545  S
O17          C29   1.262       .  A
O17         Co22   1.949       .  S
O18          C28   1.267       .  A
O18         Co21   1.979       .  S
O19          C26   1.268       .  A
O19         Co24   2.013   1_545  S
O20          C27   1.274       .  A
O20         Co23   2.074   1_545  S
Co21         O25   2.032       .  S
Co22         O25   1.991       .  S
Co23         O25   2.015   1_565  S
Co24         O25   2.107   1_565  S
C26         C665   1.479       .  S
C27         C678   1.473       .  S
C28         C688   1.494       .  S
C29         C658   1.480       .  S
O30          C38   1.266       .  A
O30         Co50   1.879       .  S
O31          C39   1.266       .  A
O31         Co51   1.969       .  S
O32          C40   1.263       .  A
O32         Co52   2.014   1_655  S
O33          C41   1.277       .  A
O33         Co53   2.024   1_655  S
O34          C40   1.263       .  A
O34         Co51   1.977       .  S
O35          C41   1.278       .  A
O35         Co50   1.988       .  S
O36          C39   1.270       .  A
O36         Co53   2.006   1_655  S
O37          C38   1.296       .  A
O37         Co52   2.102   1_655  S
C38         C545   1.469       .  S
C39         C555   1.474       .  S
C40         C535   1.488       .  S
C41         C565   1.494       .  S
O42          C55   1.259       .  A
O42         Co50   1.989   1_455  S
O43          C56   1.278       .  A
O43         Co51   2.032   1_455  S
O44          C57   1.268       .  A
O44         Co52   1.892       .  S
O45          C58   1.265       .  A
O45         Co53   1.963       .  S
O46          C58   1.271       .  A
O46         Co51   2.003   1_455  S
O47          C57   1.297       .  A
O47         Co50   2.105   1_455  S
O48          C55   1.262       .  A
O48         Co53   1.984       .  S
O49          C56   1.272       .  A
O49         Co52   1.980       .  S
Co50         O54   1.990   1_655  S
Co51         O54   2.028   1_655  S
Co52         O54   2.015       .  S
Co53         O54   2.044       .  S
C55         C588   1.473       .  S
C56         C595   1.484       .  S
C57         C605   1.471       .  S
C58         C575   1.466       .  S
O59          C67   1.300       .  A
O59         Co79   2.114       .  S
O60          C68   1.274       .  A
O60         Co80   1.996       .  S
O61          C69   1.273       .  A
O61         Co81   1.982       .  S
O62          C70   1.263       .  A
O62         Co82   1.989       .  S
O63          C69   1.273       .  A
O63         Co80   2.006       .  S
O64          C70   1.254       .  A
O64         Co79   1.972       .  S
O65          C68   1.266       .  A
O65         Co82   1.947       .  S
O66          C67   1.270       .  A
O66         Co81   1.885       .  S
C67         C465   1.463       .  S
C68         C475   1.455       .  S
C69         C455   1.469       .  S
C70         C485   1.471       .  S
O71          C84   1.274       .  A
O71         Co79   1.972       .  S
O72          C85   1.266       .  A
O72         Co80   1.981       .  S
O73          C86   1.292       .  A
O73         Co81   2.101       .  S
O74          C87   1.266       .  A
O74         Co82   1.993       .  S
O75          C87   1.267       .  A
O75         Co80   1.972       .  S
O76          C86   1.259       .  A
O76         Co79   1.857       .  S
O77          C84   1.276       .  A
O77         Co82   2.008       .  S
O78          C85   1.265       .  A
O78         Co81   2.002       .  S
Co79         O83   1.950       .  S
Co80         O83   2.006       .  S
Co81         O83   1.999       .  S
Co82         O83   2.036       .  S
C84         C505   1.472       .  S
C85         C515   1.479       .  S
C86         C525   1.449       .  S
C87         C495   1.468       .  S
C88         C818   1.465   1_554  S
C88         N106   1.343       .  A
C88         C446   1.463       .  S
N89         N106   1.320       .  A
N89         N804   1.315   1_554  A
N89        Co126   2.053       .  S
C90         C128   1.472       .  S
C90         N115   1.351       .  A
C90         H135   1.081       .  S
H91         C132   1.082       .  S
C92         C789   1.471   1_554  S
C92         N116   1.350       .  A
C92         H121   1.081       .  S
Co93        N111   2.066       .  S
Co93        N101   2.048       .  S
Co93        N133   2.075       .  S
Co93        N109   2.045       .  S
Co93       Cl830   2.440       .  S
N94         C132   1.347       .  A
N94         N101   1.320       .  A
N94         Co95   2.098       .  S
Co95         N98   2.109       .  S
Co95        N115   2.113       .  S
Co95        N102   2.116       .  S
Co95       Cl830   2.466       .  S
C96         C785   1.476       .  S
C96         N134   1.351       .  A
C96        C1131   1.503       .  S
N97         N104   1.320       .  A
N97         N127   1.335       .  A
N97        Co130   2.120       .  S
N98         N134   1.329       .  A
N98         N809   1.324       .  A
N99         C128   1.336       .  A
N99         N109   1.314       .  A
H100        C125   1.082       .  S
N101        N122   1.315       .  A
N102        N107   1.333       .  A
N102        N813   1.322       .  A
C103        C131   1.455       .  S
C103        N800   1.363   1_554  A
C103        C442   1.503       .  S
N104        C119   1.331       .  A
N104       Co126   2.067       .  S
C105        C801   1.461       .  S
C105        N133   1.340       .  A
C105        H139   1.082       .  S
N107        C796   1.359       .  A
C108        C798   1.459   1_554  S
C108        N129   1.358       .  A
C108        C450   1.475       .  S
N109        N115   1.321       .  A
N110        C136   1.323       .  A
N110        N112   1.321       .  A
N110       Co126   2.034       .  S
N111        C125   1.338       .  A
N111        N782   1.316       .  A
N112        N140   1.323       .  A
N112       Co130   2.078       .  S
H113        C136   1.082       .  S
H114        C131   1.081       .  S
N116        N791   1.324   1_554  A
N116       Co130   2.110       .  S
N117        N129   1.329       .  A
N117        N826   1.313   1_554  A
N117       Co126   2.106       .  S
C118        C132   1.463       .  S
C118        C548   1.452       .  S
C118        N122   1.338       .  A
C119        C138   1.452       .  S
C119        H123   1.081       .  S
N120        C131   1.342       .  A
N120        N795   1.322   1_554  A
N120       Co130   2.101       .  S
C124        C136   1.438       .  S
C124        C478   1.431       .  S
C124        N140   1.346       .  A
C125        C781   1.453       .  S
Co126      Cl137   2.433       .  S
N127        C138   1.363       .  A
C128        C488   1.466       .  S
Co130      Cl137   2.465       .  S
N133        N810   1.312       .  A
Cl137      Co786   2.444   1_554  S
Cl137      Co788   2.462   1_554  S
C138        C538   1.493       .  S
C141        C871   1.464   1_554  S
C141        N159   1.344       .  A
C141        C434   1.463       .  S
N142        N159   1.321       .  A
N142        N857   1.314   1_554  A
N142       Co179   2.057       .  S
C143        C181   1.488       .  S
C143        N168   1.361       .  A
C143        H188   1.081       .  S
H144        C185   1.082       .  S
C145        C149   1.456       .  S
C145        N169   1.343       .  A
C145        H174   1.082       .  S
Co146       N164   2.055       .  S
Co146       N154   2.059       .  S
Co146       N186   2.080       .  S
Co146       N162   2.041       .  S
Co146      Cl883   2.425       .  S
N147        C185   1.353       .  A
N147        N154   1.320       .  A
N147       Co148   2.109       .  S
Co148       N151   2.149       .  S
Co148       N168   2.147       .  S
Co148       N155   2.127       .  S
Co148      Cl883   2.479       .  S
C149        N880   1.356   1_554  A
C149        C426   1.488       .  S
N150        N157   1.319       .  A
N150        N180   1.334       .  A
N150       Co183   2.121       .  S
N151        N187   1.338       .  A
N151        N862   1.325       .  A
N152        C181   1.337       .  A
N152        N162   1.314       .  A
H153        C178   1.082       .  S
N154        N175   1.314       .  A
N155        N160   1.334       .  A
N155        N866   1.326       .  A
C156        C184   1.467   1_556  S
C156        N853   1.350       .  A
C156        C430   1.489       .  S
N157        C172   1.330       .  A
N157       Co179   2.059       .  S
C158        C854   1.465       .  S
C158        N186   1.342       .  A
C158        H192   1.081       .  S
N160        C849   1.359       .  A
C161        C851   1.449       .  S
C161        N182   1.352   1_556  A
C161        C447   1.463       .  S
N162        N168   1.321       .  A
N163        C189   1.328       .  A
N163        N165   1.318       .  A
N163       Co179   2.048       .  S
N164        C178   1.338       .  A
N164        N835   1.314       .  A
N165        N193   1.328       .  A
N165       Co183   2.101       .  S
H166        C189   1.081       .  S
H167        C184   1.081       .  S
N169        N844   1.325   1_554  A
N169       Co183   2.092       .  S
N170        N182   1.323       .  A
N170        N879   1.314   1_554  A
N170       Co179   2.076       .  S
C171        C185   1.475       .  S
C171        C668   1.478       .  S
C171        N175   1.340       .  A
C172        C191   1.450       .  S
C172        H176   1.081       .  S
N173        C184   1.343       .  A
N173        N848   1.324   1_554  A
N173       Co183   2.107       .  S
C177        C189   1.452       .  S
C177        C558   1.473       .  S
C177        N193   1.356       .  A
C178        C834   1.451       .  S
Co179      Cl190   2.435       .  S
N180        C191   1.362       .  A
C181        C568   1.494       .  S
Co183      Cl190   2.459       .  S
N186        N863   1.315       .  A
N187        C842   1.364       .  A
Cl190      Co839   2.429   1_554  S
Cl190      Co841   2.465   1_554  S
C191        C655   1.486       .  S
C194        C924   1.454       .  S
C194        N212   1.350   1_556  A
C194        C422   1.467       .  S
N195        N212   1.323       .  A
N195        N910   1.316   1_554  A
N195       Co232   2.075       .  S
C196        C234   1.469       .  S
C196        N221   1.347       .  A
C196        H241   1.082       .  S
H197        C238   1.081       .  S
C198        C202   1.474   1_554  S
C198        N222   1.354       .  A
C198        H227   1.081       .  S
Co199       N217   2.086       .  S
Co199       N207   2.069       .  S
Co199       N239   2.077       .  S
Co199       N215   2.062       .  S
Co199      Cl936   2.450       .  S
N200        C238   1.356       .  A
N200        N207   1.323       .  A
N200       Co201   2.145       .  S
Co201       N204   2.105       .  S
Co201       N221   2.100       .  S
Co201       N208   2.151       .  S
Co201      Cl936   2.457       .  S
C202        N933   1.354       .  A
C202        C414   1.506       .  S
N203        N210   1.319       .  A
N203        N233   1.328       .  A
N203       Co236   2.095       .  S
N204        N240   1.328       .  A
N204        N915   1.324       .  A
N205        C234   1.343       .  A
N205        N215   1.317       .  A
H206        C231   1.081       .  S
N207        N228   1.323       .  A
N208        N213   1.339       .  A
N208        N919   1.324       .  A
C209        C237   1.457       .  S
C209        N906   1.359   1_554  A
C209        C439   1.497       .  S
N210        C225   1.326       .  A
N210       Co232   2.051       .  S
C211        C907   1.466       .  S
C211        N239   1.338       .  A
C211        H245   1.080       .  S
N213        C902   1.365       .  A
C214        C904   1.464   1_554  S
C214        N235   1.347       .  A
C214        C418   1.471       .  S
N215        N221   1.321       .  A
N216        C242   1.331       .  A
N216        N218   1.321       .  A
N216       Co232   2.052       .  S
N217        C231   1.343       .  A
N217        N888   1.315       .  A
N218        N246   1.335       .  A
N218       Co236   2.137       .  S
H219        C242   1.081       .  S
H220        C237   1.082       .  S
N222        N897   1.324   1_554  A
N222       Co236   2.130       .  S
N223        N235   1.323       .  A
N223        N932   1.315   1_554  A
N223       Co232   2.070       .  S
C224        C238   1.479       .  S
C224        C628   1.492       .  S
C224        N228   1.344       .  A
C225        C244   1.452       .  S
C225        H229   1.081       .  S
N226        C237   1.342       .  A
N226        N901   1.324   1_554  A
N226       Co236   2.096       .  S
C230        C242   1.443       .  S
C230        C598   1.480       .  S
C230        N246   1.363       .  A
C231        C887   1.470       .  S
Co232      Cl243   2.441       .  S
N233        C244   1.355       .  A
C234        C608   1.474       .  S
Co236      Cl243   2.461       .  S
N239        N916   1.315       .  A
N240        C895   1.352       .  A
Cl243      Co892   2.436   1_554  S
Cl243      Co894   2.467   1_554  S
C244        C615   1.471       .  S
C247        C284   1.440       .  S
C247        C645   1.460       .  S
C247        N265   1.355       .  A
N248        N265   1.329       .  A
N248        N270   1.320       .  A
N248       Co285   2.092       .  S
C249        C287   1.470   1_554  S
C249        N274   1.343       .  A
C249        H294   1.081       .  S
H250        C291   1.081       .  S
C251        C255   1.479       .  S
C251        N275   1.356       .  A
C251        H280   1.081       .  S
Co252       N270   2.053       .  S
Co252       N260   2.044       .  S
Co252       N292   2.031       .  S
Co252       N268   2.078       .  S
Co252      Cl989   2.441       .  S
N253        C291   1.340       .  A
N253        N953   1.312   1_554  A
N253       Co254   2.062       .  S
Co254       N257   2.063       .  S
Co254       N274   2.092       .  S
Co254       N261   2.039       .  S
Co254      Cl296   2.435       .  S
C255        C638   1.478       .  S
C255        N293   1.337       .  A
N256        N286   1.334       .  A
N256        N956   1.321   1_554  A
N256       Co289   2.117       .  S
N257        N275   1.324       .  A
N257        N293   1.319       .  A
N258        C980   1.352       .  A
N258        N268   1.326       .  A
H259        C284   1.081       .  S
N260        N281   1.319       .  A
N260        N946   1.314       .  A
N261        N279   1.320       .  A
N261        N266   1.312       .  A
C262        C290   1.468       .  S
C262        C498   1.465       .  S
C262        N266   1.338       .  A
N263        C278   1.344       .  A
N263        N949   1.322       .  A
N263       Co285   2.097       .  S
C264        C267   1.447       .  S
C264        N292   1.325       .  A
C264        H298   1.080       .  S
C267        C508   1.474       .  S
C267        N288   1.358       .  A
N268        N967   1.314       .  A
N269        C295   1.340       .  A
N269        N964   1.325       .  A
N269       Co285   2.093       .  S
N270        C284   1.326       .  A
N271        N299   1.336       .  A
N271        N962   1.326   1_554  A
N271       Co289   2.150       .  S
H272        C295   1.081       .  S
H273        C290   1.081       .  S
N274        N961   1.316   1_554  A
N275       Co289   2.141       .  S
N276        N288   1.330       .  A
N276        N292   1.318       .  A
N276       Co285   2.112       .  S
C277        C291   1.454       .  S
C277        N974   1.349   1_554  A
C277        C423   1.467       .  S
C278        C297   1.459       .  S
C278        H282   1.082       .  S
N279        C290   1.347       .  A
N279       Co289   2.098       .  S
N281        C970   1.339       .  A
C283        C988   1.458       .  S
C283        N299   1.363   1_556  A
C283        C443   1.503       .  S
Co285      Cl989   2.461       .  S
N286        C990   1.360   1_554  A
C287        N951   1.340       .  A
C287        C410   1.465       .  S
Co289      Cl296   2.461       .  S
C295        C976   1.455       .  S
Cl296      Co945   2.430   1_554  S
Cl296      Co978   2.458   1_554  S
C297        N979   1.360       .  A
C297       C1120   1.499       .  S
C300       C1030   1.451       .  S
C300        N318   1.351   1_556  A
C300        C419   1.468       .  S
N301        N318   1.325       .  A
N301       N1016   1.314   1_554  A
N301       Co338   2.080       .  S
C302        C340   1.447       .  S
C302        N327   1.339       .  A
C302        H347   1.081       .  S
H303        C344   1.081       .  S
C304        C308   1.447       .  S
C304        N328   1.335       .  A
C304        H333   1.082       .  S
Co305       N323   2.056       .  S
Co305       N313   2.057       .  S
Co305       N345   2.094       .  S
Co305       N321   2.043       .  S
Co305     Cl1042   2.443       .  S
N306        C344   1.352       .  A
N306        N313   1.321       .  A
N306       Co307   2.111       .  S
Co307       N310   2.079       .  S
Co307       N327   2.063       .  S
Co307       N314   2.100       .  S
Co307     Cl1042   2.456       .  S
C308       N1039   1.359   1_554  A
C308        C431   1.482       .  S
N309        N316   1.320       .  A
N309        N339   1.329       .  A
N309       Co342   2.112       .  S
N310        N346   1.326       .  A
N310       N1021   1.321       .  A
N311        C340   1.339       .  A
N311        N321   1.313       .  A
H312        C337   1.082       .  S
N313        N334   1.316       .  A
N314        N319   1.327       .  A
N314       N1025   1.324       .  A
C315        C343   1.464       .  S
C315       N1012   1.358   1_554  A
C315        C407   1.503       .  S
N316        C331   1.326       .  A
N316       Co338   2.036       .  S
C317       C1013   1.468       .  S
C317        N345   1.344       .  A
C317        H351   1.082       .  S
N319       C1008   1.348       .  A
C320       C1010   1.472   1_554  S
C320        N341   1.340       .  A
C320        C411   1.465       .  S
N321        N327   1.319       .  A
N322        C348   1.329       .  A
N322        N324   1.317       .  A
N322       Co338   2.053       .  S
N323        C337   1.335       .  A
N323        N994   1.315       .  A
N324        N352   1.332       .  A
N324       Co342   2.102       .  S
H325        C348   1.081       .  S
H326        C343   1.081       .  S
N328       N1003   1.321   1_554  A
N328       Co342   2.074       .  S
N329        N341   1.318       .  A
N329       N1038   1.316   1_554  A
N329       Co338   2.045       .  S
C330        C344   1.473       .  S
C330        C585   1.472       .  S
C330        N334   1.338       .  A
C331        C350   1.440       .  S
C331        H335   1.081       .  S
N332        C343   1.346       .  A
N332       N1007   1.327       .  A
N332       Co342   2.112       .  S
C336        C348   1.449       .  S
C336        C518   1.480       .  S
C336        N352   1.359       .  A
C337        C993   1.446       .  S
Co338      Cl349   2.433       .  S
N339        C350   1.356       .  A
C340        C528   1.432       .  S
Co342      Cl349   2.459       .  S
N345       N1022   1.315       .  A
N346       C1001   1.348       .  A
Cl349      Co998   2.441   1_554  S
Cl349     Co1000   2.463   1_554  S
C350        C578   1.455       .  S
C353        C390   1.454       .  S
C353        C685   1.499       .  S
C353        N371   1.365       .  A
N354        N371   1.337       .  A
N354        N376   1.322       .  A
N354       Co391   2.139       .  S
C355        C393   1.460   1_554  S
C355        N380   1.340       .  A
C355        H400   1.083       .  S
H356        C397   1.082       .  S
C357        C361   1.468       .  S
C357        N381   1.349       .  A
C357        H386   1.081       .  S
Co358       N376   2.068       .  S
Co358       N366   2.084       .  S
Co358       N398   2.056       .  S
Co358       N374   2.097       .  S
Co358     Cl1095   2.436       .  S
N359        C397   1.339       .  A
N359       N1059   1.314   1_554  A
N359       Co360   2.071       .  S
Co360       N363   2.047       .  S
Co360       N380   2.074       .  S
Co360       N367   2.056       .  S
Co360      Cl402   2.451   1_554  S
C361        C675   1.467       .  S
C361        N399   1.339       .  A
N362        N392   1.330       .  A
N362       N1062   1.325   1_554  A
N362       Co395   2.119       .  S
N363        N381   1.320       .  A
N363        N399   1.314       .  A
N364       C1086   1.356       .  A
N364        N374   1.327       .  A
H365        C390   1.081       .  S
N366        N387   1.326       .  A
N366       N1052   1.315       .  A
N367        N385   1.323       .  A
N367        N372   1.317       .  A
C368        C396   1.471       .  S
C368        C458   1.471       .  S
C368        N372   1.339       .  A
N369        C384   1.356       .  A
N369       N1055   1.324       .  A
N369       Co391   2.137       .  S
C370        C373   1.451       .  S
C370        N398   1.327       .  A
C370        H404   1.080       .  S
C373        C468   1.476       .  S
C373        N394   1.358       .  A
N374       N1073   1.313       .  A
N375        C401   1.357       .  A
N375       N1070   1.323       .  A
N375       Co391   2.147       .  S
N376        C390   1.332       .  A
N377        N405   1.335       .  A
N377       N1068   1.324   1_554  A
N377       Co395   2.119       .  S
H378        C401   1.081       .  S
H379        C396   1.081       .  S
N380       N1067   1.313   1_554  A
N381       Co395   2.106       .  S
N382        N394   1.329       .  A
N382        N398   1.322       .  A
N382       Co391   2.111       .  S
C383        C397   1.463   1_556  S
C383       N1080   1.343       .  A
C383        C435   1.461       .  S
C384       C1096   1.478       .  S
C384        H388   1.081       .  S
N385        C396   1.348       .  A
N385       Co395   2.115       .  S
N387       C1076   1.353       .  A
C389       C1094   1.463       .  S
C389        N405   1.358   1_556  A
C389        C406   1.502       .  S
Co391     Cl1095   2.476       .  S
N392        C403   1.354       .  A
C393       N1057   1.357       .  A
C393        C451   1.475       .  S
Co395      Cl402   2.459   1_554  S
C401       C1082   1.481       .  S
Cl402     Co1051   2.426       .  S
Cl402     Co1084   2.476       .  S
C403       C1077   1.475   1_554  S
C403        C415   1.506       .  S
C406        C407   1.352   1_556  D
C406        H408   1.086       .  S
C407       H1102   1.086       .  S
H409       C1100   1.086       .  S
C410        C411   1.331   1_556  D
C410       H1105   1.086       .  S
C411        H413   1.086       .  S
H412       C1103   1.086       .  S
C414        C415   1.354   1_566  D
C414       H1109   1.086       .  S
C415        H417   1.086       .  S
H416       C1107   1.086   1_545  S
C418        C419   1.339   1_554  D
C418        H420   1.087       .  S
C419       H1114   1.085       .  S
H421       C1112   1.086       .  S
C422        C423   1.339   1_556  D
C422       H1117   1.087       .  S
C423        H425   1.087       .  S
H424       C1115   1.087       .  S
C426        C427   1.341   1_544  D
C426        H428   1.086   1_545  S
C427        C990   1.484       .  S
C427       H1122   1.087   1_565  S
H429       C1120   1.087       .  S
C430        C431   1.342   1_656  D
C430       H1125   1.086   1_655  S
C431        H433   1.086       .  S
H432       C1123   1.086   1_455  S
C434        C435   1.334   1_554  D
C434       H1129   1.086       .  S
C435        H437   1.085       .  S
H436       C1127   1.086       .  S
C438        C789   1.499       .  S
C438        C439   1.349   1_656  D
C438        H440   1.087   1_655  S
C439       H1134   1.086       .  S
H441       C1132   1.086       .  S
C442        C443   1.348   1_554  D
C442        H444   1.086       .  S
C443       H1138   1.085       .  S
H445       C1136   1.086       .  S
C446        C447   1.334   1_554  D
C446       H1141   1.087       .  S
C447        H449   1.085       .  S
H448       C1139   1.087       .  S
C450        C451   1.347   1_554  D
C450       H1145   1.086       .  S
C451        H453   1.086       .  S
H452       C1143   1.086       .  S
C454        H460   1.082       .  S
C454        C455   1.409       .  A
C454        C459   1.396       .  A
C455        C456   1.397       .  A
C456        H461   1.084       .  S
C456        C457   1.399       .  A
C457        H462   1.083       .  S
C457        C458   1.410       .  A
C458        C459   1.396       .  A
C459        H463   1.084       .  S
C464        H470   1.084       .  S
C464        C465   1.406       .  A
C464        C469   1.401       .  A
C465        C466   1.396       .  A
C466        H471   1.083       .  S
C466        C467   1.388       .  A
C467        H472   1.080       .  S
C467        C468   1.408       .  A
C468        C469   1.403       .  A
C469        H473   1.083       .  S
C474        H480   1.084       .  S
C474        C475   1.402       .  A
C474        C479   1.385       .  A
C475        C476   1.406       .  A
C476        H481   1.082       .  S
C476        C477   1.386       .  A
C477        H482   1.085       .  S
C477        C478   1.393       .  A
C478        C479   1.398       .  A
C479        H483   1.084       .  S
C484        H490   1.082       .  S
C484        C485   1.413       .  A
C484        C489   1.396       .  A
C485        C486   1.396       .  A
C486        H491   1.083       .  S
C486        C487   1.397       .  A
C487        H492   1.083       .  S
C487        C488   1.410       .  A
C488        C489   1.394       .  A
C489        H493   1.084       .  S
C494        H500   1.083       .  S
C494        C495   1.397       .  A
C494        C499   1.387       .  A
C495        C496   1.412       .  A
C496        H501   1.083       .  S
C496        C497   1.397       .  A
C497        H502   1.083       .  S
C497        C498   1.397       .  A
C498        C499   1.408       .  A
C499        H503   1.083       .  S
C504        H510   1.084       .  S
C504        C505   1.411       .  A
C504        C509   1.398       .  A
C505        C506   1.398       .  A
C506        H511   1.083       .  S
C506        C507   1.389       .  A
C507        H512   1.081       .  S
C507        C508   1.409       .  A
C508        C509   1.399       .  A
C509        H513   1.083       .  S
C514        H520   1.083       .  S
C514        C515   1.399       .  A
C514        C519   1.391       .  A
C515        C516   1.411       .  A
C516        H521   1.083       .  S
C516        C517   1.404       .  A
C517        H522   1.083       .  S
C517        C518   1.402       .  A
C518        C519   1.407       .  A
C519        H523   1.082       .  S
C524        H530   1.081       .  S
C524        C525   1.402       .  A
C524        C529   1.379       .  A
C525        C526   1.402       .  A
C526        H531   1.086       .  S
C526        C527   1.392       .  A
C527        H532   1.081       .  S
C527        C528   1.399       .  A
C528        C529   1.392       .  A
C529        H533   1.086       .  S
C534        H540   1.084       .  S
C534        C535   1.400       .  A
C534        C539   1.395       .  A
C535        C536   1.413       .  A
C536        H541   1.082       .  S
C536        C537   1.409       .  A
C537        H542   1.083       .  S
C537        C538   1.405       .  A
C538        C539   1.411       .  A
C539        H543   1.080       .  S
C544        H550   1.084       .  S
C544        C545   1.405       .  A
C544        C549   1.398       .  A
C545        C546   1.404       .  A
C546        H551   1.083       .  S
C546        C547   1.390       .  A
C547        H552   1.084       .  S
C547        C548   1.398       .  A
C548        C549   1.400       .  A
C549        H553   1.083       .  S
C554        H560   1.084       .  S
C554        C555   1.411       .  A
C554        C559   1.399       .  A
C555        C556   1.400       .  A
C556        H561   1.082       .  S
C556        C557   1.390       .  A
C557        H562   1.083       .  S
C557        C558   1.407       .  A
C558        C559   1.399       .  A
C559        H563   1.082       .  S
C564        H570   1.083       .  S
C564        C565   1.417       .  A
C564        C569   1.411       .  A
C565        C566   1.399       .  A
C566        H571   1.083       .  S
C566        C567   1.396       .  A
C567        H572   1.083       .  S
C567        C568   1.413       .  A
C568        C569   1.403       .  A
C569        H573   1.082       .  S
C574        H580   1.084       .  S
C574        C575   1.409       .  A
C574        C579   1.395       .  A
C575        C576   1.400       .  A
C576        H581   1.083       .  S
C576        C577   1.390       .  A
C577        H582   1.084       .  S
C577        C578   1.403       .  A
C578        C579   1.396       .  A
C579        H583   1.083       .  S
C584        H590   1.083       .  S
C584        C585   1.397       .  A
C584        C589   1.399       .  A
C585        C586   1.410       .  A
C586        H591   1.083       .  S
C586        C587   1.398       .  A
C587        H592   1.084       .  S
C587        C588   1.397       .  A
C588        C589   1.411       .  A
C589        H593   1.083       .  S
C594        H600   1.083       .  S
C594        C595   1.411       .  A
C594        C599   1.404       .  A
C595        C596   1.401       .  A
C596        H601   1.083       .  S
C596        C597   1.400       .  A
C597        H602   1.084       .  S
C597        C598   1.408       .  A
C598        C599   1.401       .  A
C599        H603   1.083       .  S
C604        H610   1.083       .  S
C604        C605   1.401       .  A
C604        C609   1.390       .  A
C605        C606   1.407       .  A
C606        H611   1.084       .  S
C606        C607   1.401       .  A
C607        H612   1.081       .  S
C607        C608   1.404       .  A
C608        C609   1.405       .  A
C609        H613   1.084       .  S
C614        H620   1.083       .  S
C614        C615   1.406       .  A
C614        C619   1.405       .  A
C615        C616   1.401       .  A
C616        H621   1.082       .  S
C616        C617   1.381       .  A
C617        H622   1.084       .  S
C617        C618   1.401       .  A
C618        C619   1.407       .  A
C619        H623   1.083       .  S
C624        H630   1.082       .  S
C624        C625   1.404       .  A
C624        C629   1.409       .  A
C625        C626   1.414       .  A
C626        H631   1.084       .  S
C626        C627   1.406       .  A
C627        H632   1.083       .  S
C627        C628   1.401       .  A
C628        C629   1.411       .  A
C629        H633   1.084       .  S
C634        H640   1.084       .  S
C634        C635   1.416       .  A
C634        C639   1.400       .  A
C635        C636   1.403       .  A
C636        H641   1.082       .  S
C636        C637   1.407       .  A
C637        H642   1.084       .  S
C637        C638   1.409       .  A
C638        C639   1.398       .  A
C639        H643   1.083       .  S
C644        H650   1.084       .  S
C644        C645   1.399       .  A
C644        C649   1.398       .  A
C645        C646   1.404       .  A
C646        H651   1.082       .  S
C646        C647   1.389       .  A
C647        H652   1.085       .  S
C647        C648   1.398       .  A
C648        C649   1.409       .  A
C649        H653   1.082       .  S
C654        H660   1.080       .  S
C654        C655   1.409       .  A
C654        C659   1.394       .  A
C655        C656   1.403       .  A
C656        H661   1.083       .  S
C656        C657   1.405       .  A
C657        H662   1.082       .  S
C657        C658   1.410       .  A
C658        C659   1.401       .  A
C659        H663   1.084       .  S
C664        H670   1.083       .  S
C664        C665   1.398       .  A
C664        C669   1.388       .  A
C665        C666   1.413       .  A
C666        H671   1.083       .  S
C666        C667   1.406       .  A
C667        H672   1.083       .  S
C667        C668   1.402       .  A
C668        C669   1.408       .  A
C669        H673   1.083       .  S
C674        H680   1.084       .  S
C674        C675   1.401       .  A
C674        C679   1.386       .  A
C675        C676   1.403       .  A
C676        H681   1.082       .  S
C676        C677   1.405       .  A
C677        H682   1.083       .  S
C677        C678   1.406       .  A
C678        C679   1.406       .  A
C679        H683   1.084       .  S
C684        H690   1.083       .  S
C684        C685   1.406       .  A
C684        C689   1.412       .  A
C685        C686   1.411       .  A
C686        H691   1.080       .  S
C686        C687   1.397       .  A
C687        H692   1.084       .  S
C687        C688   1.403       .  A
C688        C689   1.412       .  A
C689        H693   1.083       .  S
O694        C702   1.277       .  A
O694       Co714   2.029   1_565  S
O695        C703   1.259       .  A
O695       Co715   2.000   1_565  S
O696        C704   1.268       .  A
O696       Co716   1.875       .  S
O697        C705   1.267       .  A
O697       Co717   1.956       .  S
O698        C704   1.300       .  A
O698       Co715   2.100   1_565  S
O699        C705   1.271       .  A
O699       Co714   1.985   1_565  S
O700        C703   1.266       .  A
O700       Co717   2.001       .  S
O701        C702   1.273       .  A
O701       Co716   1.985       .  S
C702       C1318   1.484       .  S
C703       C1328   1.488       .  S
C704       C1311   1.464       .  S
C705       C1341   1.451       .  S
O706        C719   1.264       .  A
O706       Co714   1.967       .  S
O707        C720   1.260       .  A
O707       Co715   1.859       .  S
O708        C721   1.263       .  A
O708       Co716   2.017   1_545  S
O709        C722   1.275       .  A
O709       Co717   2.023   1_545  S
O710        C722   1.271       .  A
O710       Co715   1.971       .  S
O711        C721   1.262       .  A
O711       Co714   1.976       .  S
O712        C719   1.268       .  A
O712       Co717   2.006   1_545  S
O713        C720   1.295       .  A
O713       Co716   2.107   1_545  S
Co714       O718   2.016   1_545  S
Co715       O718   1.966   1_545  S
Co716       O718   2.014       .  S
Co717       O718   2.064       .  S
C719       C1358   1.476       .  S
C720       C1371   1.455       .  S
C721       C1381   1.486       .  S
C722       C1351   1.483       .  S
O723        C731   1.269       .  A
O723       Co743   1.853       .  S
O724        C732   1.260       .  A
O724       Co744   1.966       .  S
O725        C733   1.247       .  A
O725       Co745   1.954   1_655  S
O726        C734   1.274       .  A
O726       Co746   2.021   1_655  S
O727        C733   1.269       .  A
O727       Co744   2.006       .  S
O728        C734   1.274       .  A
O728       Co743   1.982       .  S
O729        C732   1.269       .  A
O729       Co746   2.022   1_655  S
O730        C731   1.300       .  A
O730       Co745   2.086   1_655  S
C731       C1238   1.459       .  S
C732       C1248   1.480       .  S
C733       C1228   1.481       .  S
C734       C1258   1.492       .  S
O735        C748   1.267       .  A
O735       Co743   2.008   1_455  S
O736        C749   1.278       .  A
O736       Co744   2.036   1_455  S
O737        C750   1.235       .  A
O737       Co745   1.906       .  S
O738        C751   1.267       .  A
O738       Co746   1.963       .  S
O739        C751   1.273       .  A
O739       Co744   2.011   1_455  S
O740        C750   1.274       .  A
O740       Co743   2.057   1_455  S
O741        C748   1.267       .  A
O741       Co746   1.993       .  S
O742        C749   1.263       .  A
O742       Co745   1.955       .  S
Co743       O747   1.965   1_655  S
Co744       O747   2.077   1_655  S
Co745       O747   2.050       .  S
Co746       O747   2.068       .  S
C748       C1281   1.486       .  S
C749       C1288   1.481       .  S
C750       C1298   1.473       .  S
C751       C1268   1.472       .  S
O752        C760   1.301       .  A
O752       Co772   2.111       .  S
O753        C761   1.275       .  A
O753       Co773   2.024       .  S
O754        C762   1.269       .  A
O754       Co774   1.976       .  S
O755        C763   1.259       .  A
O755       Co775   1.984       .  S
O756        C762   1.273       .  A
O756       Co773   2.007       .  S
O757        C763   1.259       .  A
O757       Co772   1.998       .  S
O758        C761   1.263       .  A
O758       Co775   1.954       .  S
O759        C760   1.269       .  A
O759       Co774   1.878       .  S
C760       C1158   1.464       .  S
C761       C1168   1.462       .  S
C762       C1148   1.467       .  S
C763       C1178   1.476       .  S
O764        C777   1.275       .  A
O764       Co772   1.975       .  S
O765        C778   1.267       .  A
O765       Co773   1.985       .  S
O766        C779   1.299       .  A
O766       Co774   2.122       .  S
O767        C780   1.270       .  A
O767       Co775   2.006       .  S
O768        C780   1.264       .  A
O768       Co773   1.963       .  S
O769        C779   1.261       .  A
O769       Co772   1.867       .  S
O770        C777   1.277       .  A
O770       Co775   2.018       .  S
O771        C778   1.264       .  A
O771       Co774   2.010       .  S
Co772       O776   1.966       .  S
Co773       O776   2.021       .  S
Co774       O776   2.011       .  S
Co775       O776   2.036       .  S
C777       C1198   1.479       .  S
C778       C1208   1.491       .  S
C779       C1218   1.474       .  S
C780       C1188   1.468       .  S
C781        N799   1.353       .  A
C781       C1139   1.469       .  S
N782        N799   1.324       .  A
N782       Co819   2.082       .  S
C783        C821   1.472       .  S
C783        N808   1.351       .  A
C783        H828   1.082       .  S
H784        C825   1.081       .  S
C785        N809   1.352       .  A
C785        H814   1.081       .  S
Co786       N804   2.081       .  S
Co786       N794   2.034       .  S
Co786       N826   2.066       .  S
Co786       N802   2.062       .  S
N787        C825   1.347       .  A
N787        N794   1.321       .  A
N787       Co788   2.100       .  S
Co788       N791   2.120       .  S
Co788       N808   2.118       .  S
Co788       N795   2.129       .  S
C789        N827   1.353       .  A
N790        N797   1.321       .  A
N790        N820   1.334       .  A
N790       Co823   2.126       .  S
N791        N827   1.329       .  A
N792        C821   1.340       .  A
N792        N802   1.318       .  A
H793        C818   1.081       .  S
N794        N815   1.312       .  A
N795        N800   1.337       .  A
C796        C824   1.465       .  S
C796       C1135   1.507       .  S
N797        C812   1.329       .  A
N797       Co819   2.055       .  S
C798        N826   1.339       .  A
C798        H832   1.082       .  S
C801        N822   1.356       .  A
C801       C1143   1.473       .  S
N802        N808   1.323       .  A
N803        C829   1.330       .  A
N803        N805   1.322       .  A
N803       Co819   2.058       .  S
N804        C818   1.340       .  A
N805        N833   1.327       .  A
N805       Co823   2.100       .  S
H806        C829   1.082       .  S
H807        C824   1.081       .  S
N809       Co823   2.127       .  S
N810        N822   1.327       .  A
N810       Co819   2.092       .  S
C811        C825   1.464       .  S
C811       C1241   1.449       .  S
C811        N815   1.335       .  A
C812        C831   1.450       .  S
C812        H816   1.082       .  S
N813        C824   1.348       .  A
N813       Co823   2.117       .  S
C817        C829   1.445       .  S
C817       C1171   1.461       .  S
C817        N833   1.353       .  A
Co819      Cl830   2.445       .  S
N820        C831   1.362       .  A
C821       C1181   1.474       .  S
Co823      Cl830   2.462       .  S
C831       C1231   1.487       .  S
C834        N852   1.353       .  A
C834       C1127   1.466       .  S
N835        N852   1.323       .  A
N835       Co872   2.079       .  S
C836        C874   1.481       .  S
C836        N861   1.356       .  A
C836        H881   1.081       .  S
H837        C878   1.082       .  S
C838        C842   1.450       .  S
C838        N862   1.338       .  A
C838        H867   1.082       .  S
Co839       N857   2.072       .  S
Co839       N847   2.047       .  S
Co839       N879   2.055       .  S
Co839       N855   2.059       .  S
N840        C878   1.349       .  A
N840        N847   1.319       .  A
N840       Co841   2.102       .  S
Co841       N844   2.119       .  S
Co841       N861   2.128       .  S
Co841       N848   2.097       .  S
C842       C1119   1.497       .  S
N843        N850   1.318       .  A
N843        N873   1.333       .  A
N843       Co876   2.123       .  S
N844        N880   1.329       .  A
N845        C874   1.341       .  A
N845        N855   1.318       .  A
H846        C871   1.082       .  S
N847        N868   1.314       .  A
N848        N853   1.328       .  A
C849        C877   1.457       .  S
C849       C1123   1.496       .  S
N850        C865   1.327       .  A
N850       Co872   2.047       .  S
C851        N879   1.336       .  A
C851        H885   1.081       .  S
C854        N875   1.345       .  A
C854       C1140   1.468       .  S
N855        N861   1.320       .  A
N856        C882   1.333       .  A
N856        N858   1.319       .  A
N856       Co872   2.066       .  S
N857        C871   1.338       .  A
N858        N886   1.329       .  A
N858       Co876   2.094       .  S
H859        C882   1.081       .  S
H860        C877   1.082       .  S
N862       Co876   2.083       .  S
N863        N875   1.321       .  A
N863       Co872   2.061       .  S
C864        C878   1.472       .  S
C864       C1361   1.475       .  S
C864        N868   1.340       .  A
C865        C884   1.452       .  S
C865        H869   1.080       .  S
N866        C877   1.343       .  A
N866       Co876   2.103       .  S
C870        C882   1.454       .  S
C870       C1251   1.476       .  S
C870        N886   1.355       .  A
Co872      Cl883   2.439       .  S
N873        C884   1.363       .  A
C874       C1261   1.491       .  S
Co876      Cl883   2.458       .  S
C884       C1348   1.488       .  S
C887        N905   1.339       .  A
C887       C1115   1.464       .  S
N888        N905   1.318       .  A
N888       Co925   2.047       .  S
C889        C927   1.472       .  S
C889        N914   1.350       .  A
C889        H934   1.082       .  S
H890        C931   1.081       .  S
C891        C895   1.477       .  S
C891        N915   1.355       .  A
C891        H920   1.081       .  S
Co892       N910   2.069       .  S
Co892       N900   2.054       .  S
Co892       N932   2.074       .  S
Co892       N908   2.051       .  S
N893        C931   1.355       .  A
N893        N900   1.321       .  A
N893       Co894   2.131       .  S
Co894       N897   2.114       .  S
Co894       N914   2.106       .  S
Co894       N901   2.129       .  S
C895       C1107   1.505       .  S
N896        N903   1.317       .  A
N896        N926   1.327       .  A
N896       Co929   2.088       .  S
N897        N933   1.330       .  A
N898        C927   1.340       .  A
N898        N908   1.314       .  A
H899        C924   1.082       .  S
N900        N921   1.318       .  A
N901        N906   1.335       .  A
C902        C930   1.451       .  S
C902       C1132   1.499       .  S
N903        C918   1.324       .  A
N903       Co925   2.038       .  S
C904        N932   1.339       .  A
C904        H938   1.081       .  S
C907        N928   1.346       .  A
C907       C1111   1.469       .  S
N908        N914   1.320       .  A
N909        C935   1.329       .  A
N909        N911   1.320       .  A
N909       Co925   2.037       .  S
N910        C924   1.339       .  A
N911        N939   1.336       .  A
N911       Co929   2.145       .  S
H912        C935   1.082       .  S
H913        C930   1.082       .  S
N915       Co929   2.134       .  S
N916        N928   1.322       .  A
N916       Co925   2.063       .  S
C917        C931   1.479       .  S
C917       C1321   1.483       .  S
C917        N921   1.339       .  A
C918        C937   1.443       .  S
C918        H922   1.081       .  S
N919        C930   1.338       .  A
N919       Co929   2.084       .  S
C923        C935   1.437       .  S
C923       C1291   1.475       .  S
C923        N939   1.364       .  A
Co925      Cl936   2.429       .  S
N926        C937   1.355       .  A
C927       C1301   1.471       .  S
Co929      Cl936   2.469       .  S
C937       C1308   1.459       .  S
C940        C977   1.439       .  S
C940       C1338   1.438       .  S
C940        N958   1.350       .  A
N941        N958   1.324       .  A
N941        N963   1.318       .  A
N941       Co978   2.086       .  S
C942        C980   1.469       .  S
C942        N967   1.344       .  A
C942        H987   1.081       .  S
H943        C984   1.081       .  S
C944        C948   1.481       .  S
C944        N968   1.357       .  A
C944        H973   1.081       .  S
Co945       N963   2.034       .  S
Co945       N953   2.070       .  S
Co945       N985   2.049       .  S
Co945       N961   2.047       .  S
N946        C984   1.344       .  A
N946       Co947   2.088       .  S
Co947       N950   2.066       .  S
Co947       N967   2.098       .  S
Co947       N954   2.058       .  S
Co947      Cl989   2.439       .  S
C948       C1331   1.490       .  S
C948        N986   1.341       .  A
N949        N979   1.333       .  A
N949       Co982   2.123       .  S
N950        N968   1.325       .  A
N950        N986   1.319       .  A
N951        N961   1.318       .  A
H952        C977   1.081       .  S
N953        N974   1.323       .  A
N954        N972   1.322       .  A
N954        N959   1.315       .  A
C955        C983   1.463       .  S
C955       C1191   1.464       .  S
C955        N959   1.342       .  A
N956        C971   1.337       .  A
N956       Co978   2.077       .  S
C957        C960   1.447       .  S
C957        N985   1.329       .  A
C957        H991   1.080       .  S
C960       C1201   1.479       .  S
C960        N981   1.360       .  A
N962        C988   1.343       .  A
N962       Co978   2.096       .  S
N963        C977   1.324       .  A
N964        N992   1.340       .  A
N964       Co982   2.155       .  S
H965        C988   1.081       .  S
H966        C983   1.082       .  S
N968       Co982   2.143       .  S
N969        N981   1.332       .  A
N969        N985   1.317       .  A
N969       Co978   2.103       .  S
C970        C984   1.469       .  S
C970       C1116   1.464       .  S
C971        C990   1.448       .  S
C971        H975   1.081       .  S
N972        C983   1.345       .  A
N972       Co982   2.091       .  S
C976        N992   1.365       .  A
C976       C1136   1.505       .  S
C980       C1103   1.476       .  S
Co982      Cl989   2.468       .  S
C993       N1011   1.353       .  A
C993       C1112   1.463       .  S
N994       N1011   1.326       .  A
N994      Co1031   2.082       .  S
C995       C1033   1.465       .  S
C995       N1020   1.349       .  A
C995       H1040   1.081       .  S
H996       C1037   1.081       .  S
C997       C1001   1.476       .  S
C997       N1021   1.354       .  A
C997       H1026   1.081       .  S
Co998      N1016   2.060       .  S
Co998      N1006   2.068       .  S
Co998      N1038   2.096       .  S
Co998      N1014   2.045       .  S
N999       C1037   1.355       .  A
N999       N1006   1.324       .  A
N999      Co1000   2.134       .  S
Co1000     N1003   2.119       .  S
Co1000     N1020   2.103       .  S
Co1000     N1007   2.133   1_556  S
C1001      C1124   1.497       .  S
N1002      N1009   1.323       .  A
N1002      N1032   1.328       .  A
N1002     Co1035   2.101       .  S
N1003      N1039   1.334       .  A
N1004      C1033   1.338       .  A
N1004      N1014   1.315       .  A
H1005      C1030   1.081       .  S
N1006      N1027   1.319       .  A
N1007      N1012   1.334   1_554  A
C1008      C1036   1.479       .  S
C1008      C1100   1.502       .  S
N1009      C1024   1.331       .  A
N1009     Co1031   2.064       .  S
C1010      N1038   1.344       .  A
C1010      H1044   1.081       .  S
C1013      N1034   1.353       .  A
C1013      C1104   1.475       .  S
N1014      N1020   1.320       .  A
N1015      C1041   1.328       .  A
N1015      N1017   1.321       .  A
N1015     Co1031   2.056       .  S
N1016      C1030   1.338       .  A
N1017      N1045   1.337       .  A
N1017     Co1035   2.140       .  S
H1018      C1041   1.081       .  S
H1019      C1036   1.082       .  S
N1021     Co1035   2.135       .  S
N1022      N1034   1.326       .  A
N1022     Co1031   2.087       .  S
C1023      C1037   1.479       .  S
C1023      C1278   1.484       .  S
C1023      N1027   1.340       .  A
C1024      C1043   1.445       .  S
C1024      H1028   1.081       .  S
N1025      C1036   1.355       .  A
N1025     Co1035   2.135       .  S
C1029      C1041   1.449       .  S
C1029      C1211   1.495       .  S
C1029      N1045   1.366       .  A
Co1031    Cl1042   2.438       .  S
N1032      C1043   1.353       .  A
C1033      C1221   1.457       .  S
Co1035    Cl1042   2.471       .  S
C1043      C1271   1.459       .  S
C1046      C1083   1.451       .  S
C1046      C1378   1.492       .  S
C1046      N1064   1.363       .  A
N1047      N1064   1.335       .  A
N1047      N1069   1.320       .  A
N1047     Co1084   2.123       .  S
C1048      C1086   1.459       .  S
C1048      N1073   1.339       .  A
C1048      H1093   1.083       .  S
H1049      C1090   1.081       .  S
C1050      C1054   1.462       .  S
C1050      N1074   1.346       .  A
C1050      H1079   1.082       .  S
Co1051     N1069   2.060       .  S
Co1051     N1059   2.055       .  S
Co1051     N1091   2.034       .  S
Co1051     N1067   2.101       .  S
N1052      C1090   1.335       .  A
N1052     Co1053   2.055       .  S
Co1053     N1056   2.038       .  S
Co1053     N1073   2.070       .  S
Co1053     N1060   2.042       .  S
Co1053    Cl1095   2.445       .  S
C1054      C1368   1.450       .  S
C1054      N1092   1.336       .  A
N1055      N1085   1.328       .  A
N1055     Co1088   2.107       .  S
N1056      N1074   1.318       .  A
N1056      N1092   1.311       .  A
N1057      N1067   1.328       .  A
H1058      C1083   1.080       .  S
N1059      N1080   1.320       .  A
N1060      N1078   1.321       .  A
N1060      N1065   1.315       .  A
C1061      C1089   1.470       .  S
C1061      C1151   1.465       .  S
C1061      N1065   1.337       .  A
N1062      C1077   1.354       .  A
N1062     Co1084   2.127       .  S
C1063      C1066   1.441       .  S
C1063      N1091   1.322       .  A
C1063      H1097   1.082       .  S
C1066      C1161   1.462       .  S
C1066      N1087   1.357       .  A
N1068      C1094   1.345       .  A
N1068     Co1084   2.115       .  S
N1069      C1083   1.328       .  A
N1070      N1098   1.325       .  A
N1070     Co1088   2.081       .  S
H1071      C1094   1.081       .  S
H1072      C1089   1.082       .  S
N1074     Co1088   2.081       .  S
N1075      N1087   1.330       .  A
N1075      N1091   1.320       .  A
N1075     Co1084   2.107       .  S
C1076      C1090   1.447       .  S
C1076      C1128   1.463       .  S
C1077      H1081   1.081       .  S
N1078      C1089   1.349       .  A
N1078     Co1088   2.114       .  S
C1082      N1098   1.347       .  A
C1082      C1099   1.501       .  S
N1085      C1096   1.351       .  A
C1086      C1144   1.470       .  S
Co1088    Cl1095   2.457       .  S
C1096      C1108   1.505       .  S
C1099      C1100   1.347       .  D
C1099      H1101   1.086       .  S
C1103      C1104   1.348       .  D
C1104      H1106   1.086       .  S
C1107      C1108   1.351   1_565  D
C1108      H1110   1.086       .  S
C1111      C1112   1.335       .  D
C1111      H1113   1.088       .  S
C1115      C1116   1.330       .  D
C1116      H1118   1.086       .  S
C1119      C1120   1.346   1_545  D
C1119      H1121   1.088   1_545  S
C1123      C1124   1.347   1_655  D
C1124      H1126   1.087       .  S
C1127      C1128   1.335       .  D
C1128      H1130   1.087       .  S
C1131      C1132   1.347   1_655  D
C1131      H1133   1.086       .  S
C1135      C1136   1.351       .  D
C1135      H1137   1.085       .  S
C1139      C1140   1.337       .  D
C1140      H1142   1.088       .  S
C1143      C1144   1.343       .  D
C1144      H1146   1.086       .  S
C1147      H1153   1.081       .  S
C1147      C1148   1.408       .  A
C1147      C1152   1.395       .  A
C1148      C1149   1.397       .  A
C1149      H1154   1.084       .  S
C1149      C1150   1.396       .  A
C1150      H1155   1.083       .  S
C1150      C1151   1.409       .  A
C1151      C1152   1.396       .  A
C1152      H1156   1.084       .  S
C1157      H1163   1.083       .  S
C1157      C1158   1.409       .  A
C1157      C1162   1.400       .  A
C1158      C1159   1.398       .  A
C1159      H1164   1.084       .  S
C1159      C1160   1.381       .  A
C1160      H1165   1.082       .  S
C1160      C1161   1.403       .  A
C1161      C1162   1.400       .  A
C1162      H1166   1.083       .  S
C1167      H1173   1.083       .  S
C1167      C1168   1.405       .  A
C1167      C1172   1.397       .  A
C1168      C1169   1.400       .  A
C1169      H1174   1.083       .  S
C1169      C1170   1.390       .  A
C1170      H1175   1.083       .  S
C1170      C1171   1.403       .  A
C1171      C1172   1.400       .  A
C1172      H1176   1.083       .  S
C1177      H1183   1.083       .  S
C1177      C1178   1.399       .  A
C1177      C1182   1.399       .  A
C1178      C1179   1.410       .  A
C1179      H1184   1.083       .  S
C1179      C1180   1.400       .  A
C1180      H1185   1.083       .  S
C1180      C1181   1.399       .  A
C1181      C1182   1.409       .  A
C1182      H1186   1.084       .  S
C1187      H1193   1.083       .  S
C1187      C1188   1.400       .  A
C1187      C1192   1.388       .  A
C1188      C1189   1.409       .  A
C1189      H1194   1.084       .  S
C1189      C1190   1.397       .  A
C1190      H1195   1.082       .  S
C1190      C1191   1.399       .  A
C1191      C1192   1.404       .  A
C1192      H1196   1.084       .  S
C1197      H1203   1.082       .  S
C1197      C1198   1.412       .  A
C1197      C1202   1.401       .  A
C1198      C1199   1.399       .  A
C1199      H1204   1.084       .  S
C1199      C1200   1.394       .  A
C1200      H1205   1.080       .  S
C1200      C1201   1.410       .  A
C1201      C1202   1.400       .  A
C1202      H1206   1.084       .  S
C1207      H1213   1.084       .  S
C1207      C1208   1.398       .  A
C1207      C1212   1.395       .  A
C1208      C1209   1.415       .  A
C1209      H1214   1.082       .  S
C1209      C1210   1.411       .  A
C1210      H1215   1.084       .  S
C1210      C1211   1.404       .  A
C1211      C1212   1.412       .  A
C1212      H1216   1.079       .  S
C1217      H1223   1.084       .  S
C1217      C1218   1.406       .  A
C1217      C1222   1.388       .  A
C1218      C1219   1.404       .  A
C1219      H1224   1.083       .  S
C1219      C1220   1.404       .  A
C1220      H1225   1.083       .  S
C1220      C1221   1.406       .  A
C1221      C1222   1.396       .  A
C1222      H1226   1.084       .  S
C1227      H1233   1.083       .  S
C1227      C1228   1.396       .  A
C1227      C1232   1.396       .  A
C1228      C1229   1.415       .  A
C1229      H1234   1.084       .  S
C1229      C1230   1.403       .  A
C1230      H1235   1.082       .  S
C1230      C1231   1.401       .  A
C1231      C1232   1.412       .  A
C1232      H1236   1.081       .  S
C1237      H1243   1.082       .  S
C1237      C1238   1.406       .  A
C1237      C1242   1.395       .  A
C1238      C1239   1.401       .  A
C1239      H1244   1.084       .  S
C1239      C1240   1.384       .  A
C1240      H1245   1.084       .  S
C1240      C1241   1.401       .  A
C1241      C1242   1.397       .  A
C1242      H1246   1.084       .  S
C1247      H1253   1.083       .  S
C1247      C1248   1.409       .  A
C1247      C1252   1.402       .  A
C1248      C1249   1.403       .  A
C1249      H1254   1.083       .  S
C1249      C1250   1.394       .  A
C1250      H1255   1.082       .  S
C1250      C1251   1.405       .  A
C1251      C1252   1.402       .  A
C1252      H1256   1.083       .  S
C1257      H1263   1.083       .  S
C1257      C1258   1.414       .  A
C1257      C1262   1.407       .  A
C1258      C1259   1.402       .  A
C1259      H1264   1.083       .  S
C1259      C1260   1.399       .  A
C1260      H1265   1.083       .  S
C1260      C1261   1.411       .  A
C1261      C1262   1.402       .  A
C1262      H1266   1.083       .  S
C1267      H1273   1.084       .  S
C1267      C1268   1.410       .  A
C1267      C1272   1.398       .  A
C1268      C1269   1.401       .  A
C1269      H1274   1.083       .  S
C1269      C1270   1.392       .  A
C1270      H1275   1.084       .  S
C1270      C1271   1.401       .  A
C1271      C1272   1.398       .  A
C1272      H1276   1.083       .  S
C1277      H1283   1.082       .  S
C1277      C1278   1.401       .  A
C1277      C1282   1.404       .  A
C1278      C1279   1.410       .  A
C1279      H1284   1.084       .  S
C1279      C1280   1.402       .  A
C1280      H1285   1.083       .  S
C1280      C1281   1.402       .  A
C1281      C1282   1.411       .  A
C1282      H1286   1.084       .  S
C1287      H1293   1.083       .  S
C1287      C1288   1.408       .  A
C1287      C1292   1.401       .  A
C1288      C1289   1.403       .  A
C1289      H1294   1.084       .  S
C1289      C1290   1.402       .  A
C1290      H1295   1.083       .  S
C1290      C1291   1.408       .  A
C1291      C1292   1.400       .  A
C1292      H1296   1.083       .  S
C1297      H1303   1.083       .  S
C1297      C1298   1.394       .  A
C1297      C1302   1.390       .  A
C1298      C1299   1.415       .  A
C1299      H1304   1.084       .  S
C1299      C1300   1.402       .  A
C1300      H1305   1.083       .  S
C1300      C1301   1.401       .  A
C1301      C1302   1.407       .  A
C1302      H1306   1.083       .  S
C1307      H1313   1.083       .  S
C1307      C1308   1.399       .  A
C1307      C1312   1.397       .  A
C1308      C1309   1.403       .  A
C1309      H1314   1.084       .  S
C1309      C1310   1.385       .  A
C1310      H1315   1.083       .  S
C1310      C1311   1.400       .  A
C1311      C1312   1.408       .  A
C1312      H1316   1.083       .  S
C1317      H1323   1.083       .  S
C1317      C1318   1.400       .  A
C1317      C1322   1.402       .  A
C1318      C1319   1.411       .  A
C1319      H1324   1.081       .  S
C1319      C1320   1.403       .  A
C1320      H1325   1.083       .  S
C1320      C1321   1.399       .  A
C1321      C1322   1.411       .  A
C1322      H1326   1.083       .  S
C1327      H1333   1.082       .  S
C1327      C1328   1.413       .  A
C1327      C1332   1.406       .  A
C1328      C1329   1.399       .  A
C1329      H1334   1.084       .  S
C1329      C1330   1.404       .  A
C1330      H1335   1.083       .  S
C1330      C1331   1.413       .  A
C1331      C1332   1.400       .  A
C1332      H1336   1.084       .  S
C1337      H1343   1.084       .  S
C1337      C1338   1.397       .  A
C1337      C1342   1.385       .  A
C1338      C1339   1.398       .  A
C1339      H1344   1.084       .  S
C1339      C1340   1.390       .  A
C1340      H1345   1.083       .  S
C1340      C1341   1.403       .  A
C1341      C1342   1.402       .  A
C1342      H1346   1.084       .  S
C1347      H1353   1.080       .  S
C1347      C1348   1.409       .  A
C1347      C1352   1.391       .  A
C1348      C1349   1.405       .  A
C1349      H1354   1.082       .  S
C1349      C1350   1.407       .  A
C1350      H1355   1.083       .  S
C1350      C1351   1.411       .  A
C1351      C1352   1.400       .  A
C1352      H1356   1.083       .  S
C1357      H1363   1.084       .  S
C1357      C1358   1.400       .  A
C1357      C1362   1.389       .  A
C1358      C1359   1.411       .  A
C1359      H1364   1.083       .  S
C1359      C1360   1.401       .  A
C1360      H1365   1.083       .  S
C1360      C1361   1.401       .  A
C1361      C1362   1.408       .  A
C1362      H1366   1.083       .  S
C1367      H1373   1.085       .  S
C1367      C1368   1.400       .  A
C1367      C1372   1.380       .  A
C1368      C1369   1.399       .  A
C1369      H1374   1.082       .  S
C1369      C1370   1.398       .  A
C1370      H1375   1.084       .  S
C1370      C1371   1.406       .  A
C1371      C1372   1.399       .  A
C1372      H1376   1.083       .  S
C1377      H1383   1.082       .  S
C1377      C1378   1.405       .  A
C1377      C1382   1.410       .  A
C1378      C1379   1.410       .  A
C1379      H1384   1.080       .  S
C1379      C1380   1.392       .  A
C1380      H1385   1.083       .  S
C1380      C1381   1.399       .  A
C1381      C1382   1.412       .  A
C1382      H1386   1.083       .  S
