geometry optimzed in LAMMPS
_audit_creation_date              2020-11-30 
_audit_creation_method            'lammps2cif' 
_symmetry_space_group_name_H-M    'P1' 
_symmetry_Int_Tables_number       1 
_symmetry_cell_setting            triclinic 
loop_ 
_symmetry_equiv_pos_as_xyz 
  x,y,z 
_cell_length_a                    45.61319587 
_cell_length_b                    45.52483120375396 
_cell_length_c                    37.740533296136554 
_cell_angle_alpha                 93.9197356505609 
_cell_angle_beta                  94.24194641082082 
_cell_angle_gamma                 88.99911472806767 
loop_ 
_atom_site_label 
_atom_site_type_symbol 
_atom_site_fract_x 
_atom_site_fract_y 
_atom_site_fract_z 
_atom_site_charge 
N1          N  0.56683603  0.24009851  0.01839319    -0.03500
C2          C  0.53929836  0.22869697  0.01546798    -0.00900
C3          C  0.53676015  0.20213305  0.48388928    -0.23800
C4          C  0.56286721  0.20231902  0.46807686    -0.24000
C5          C  0.58169826  0.21965654  0.49046887    -0.01000
H6          H  0.51633900  0.19322045  0.47157284     0.12800
H7          H  0.56669674  0.19339983  0.44146858     0.12800
O8          O  0.82359561  0.30568328  0.25572422    -0.81800
C9          C  0.72570359  0.29410607  0.33223009     0.97600
O10         O  0.75063476  0.28230866  0.32926366    -0.70900
O11         O  0.79768784  0.26452968  0.29717767    -0.74500
Al12       Al  0.78430726  0.30186348  0.31775820     1.49000
C13         C  0.79222195  0.25069777  0.26718896     0.92800
O14         O  0.74628800  0.30148979  0.20729311    -0.80700
O15         O  0.74346189  0.35941400  0.24000608    -0.74300
Al16       Al  0.78309706  0.30457382  0.23621154     1.90100
O17         O  0.71273708  0.30866395  0.24552651    -0.73300
O18         O  0.75204302  0.36542955  0.30957583    -0.73200
O19         O  0.71821361  0.31671297  0.31586932    -0.78900
O20         O  0.77480110  0.33652768  0.34701921    -0.77100
O21         O  0.76716972  0.31400316  0.27726371    -1.13200
O22         O  0.82003646  0.32013883  0.31161795    -0.72400
C23         C  0.83547583  0.31536148  0.28551973     1.01500
C24         C  0.71964843  0.30070242  0.21448117     0.94700
Al25       Al  0.73436014  0.33570710  0.27774581     1.55600
O26         O  0.78057661  0.26384429  0.24133828    -0.77000
C27         C  0.76476438  0.36164968  0.33975645     0.98900
C28         C  0.76652914  0.36259064  0.22409570     0.93800
O29         O  0.78737981  0.34418132  0.22637614    -0.82300
N30         N  0.75558526  0.52156442  0.01863264    -0.03500
C31         C  0.74640230  0.54875494  0.00963177    -0.00900
C32         C  0.72561872  0.55976720  0.03220903    -0.23800
C33         C  0.72231024  0.53914989  0.05634708    -0.24000
C34         C  0.74115090  0.51627698  0.04760495    -0.01000
H35         H  0.71659546  0.58193477  0.03371452     0.12800
H36         H  0.70925901  0.54147313  0.07920582     0.12800
N37         N  0.86722747  0.02481333  0.27007940    -0.03500
C38         C  0.87826347  0.05229854  0.27125623    -0.00900
C39         C  0.89493712  0.05797309  0.30309153    -0.23800
C40         C  0.89326381  0.03352313  0.32226385    -0.24000
C41         C  0.87595374  0.01352333  0.30142770    -0.01000
H42         H  0.90384896  0.07899876  0.31338301     0.12800
H43         H  0.90098122  0.03186201  0.34987886     0.12800
O44         O  0.83448036  0.87001822  0.05337001    -0.81800
C45         C  0.80817419  0.75091910  0.01252342     0.97600
O46         O  0.80296770  0.76454846  0.04180880    -0.70900
O47         O  0.85013990  0.78837269  0.07630970    -0.74500
Al48       Al  0.81231681  0.80366439  0.06199685     1.49000
C49         C  0.87353070  0.80300381  0.08034807     0.92800
O50         O  0.88173773  0.81465204  0.49303941    -0.80700
O51         O  0.80413577  0.84693172  0.46367716    -0.74300
Al52       Al  0.85394911  0.84190331  0.02422646     1.90100
O53         O  0.84628884  0.80404341  0.45175466    -0.73300
O54         O  0.77157479  0.80927134  0.49242446    -0.73200
O55         O  0.81506686  0.76720433  0.48249409    -0.78900
O56         O  0.77310292  0.81756222  0.05290259    -0.77100
O57         O  0.82425941  0.81683534  0.02201446    -1.13200
O58         O  0.81923664  0.83993549  0.09075995    -0.72400
C59         C  0.82518555  0.86572224  0.08317004     0.98300
C60         C  0.87338142  0.80449251  0.46199803     0.94700
Al61       Al  0.81076580  0.80765124  0.47644800     1.55600
O62         O  0.87567105  0.82621967  0.06427493    -0.77000
C63         C  0.75668015  0.81308775  0.02473563     0.98900
C64         C  0.82414903  0.86548588  0.46295837     0.93800
O65         O  0.84768348  0.86332970  0.48227372    -0.82300
N66         N  0.03767606  0.75841772  0.26203536    -0.03500
C67         C  0.06667627  0.75251815  0.25855318    -0.00900
C68         C  0.08079408  0.74731839  0.29123553    -0.23800
C69         C  0.05999722  0.75040269  0.31578257    -0.24000
C70         C  0.03379744  0.75721301  0.29728669    -0.01000
H71         H  0.10410309  0.74349438  0.29690716     0.12800
H72         H  0.06375872  0.74892280  0.34425960     0.12800
N73         N  0.25181802  0.08987159  0.24531651    -0.03500
C74         C  0.24357379  0.06168907  0.23597045    -0.00900
C75         C  0.23130434  0.04957295  0.26397476    -0.23800
C76         C  0.23199807  0.07077303  0.29152511    -0.24000
C77         C  0.24443723  0.09524332  0.27940614    -0.01000
H78         H  0.22459530  0.02698038  0.26507825     0.12800
H79         H  0.22540872  0.06822822  0.31810144     0.12800
O80         O  0.32166875  0.30142532  0.07119487    -0.81800
C81         C  0.21970688  0.31757965  0.47903351     0.97600
O82         O  0.24581070  0.31696077  0.46948510    -0.70900
O83         O  0.28205461  0.35353811  0.50577597    -0.74500
Al84       Al  0.28405501  0.31288208  0.49451334     1.49000
C85         C  0.29171378  0.37122691  0.03929732     0.92800
O86         O  0.25257255  0.33976813  0.09733278    -0.80700
O87         O  0.25505184  0.25675581  0.06341804    -0.74300
Al88       Al  0.28609215  0.32001733  0.08164573     1.90100
O89         O  0.22040080  0.30550710  0.07976521    -0.73300
O90         O  0.24546379  0.25844402  0.49233779    -0.73200
O91         O  0.21455745  0.30885051  0.50894935    -0.78900
O92         O  0.28790144  0.27311585  0.47768653    -0.77100
O93         O  0.26816720  0.30802396  0.03960512    -1.13200
O94         O  0.32508555  0.31045839  0.51056921    -0.72400
C95         C  0.33625565  0.30445270  0.04480125     0.98300
C96         C  0.22794985  0.32826994  0.09921868     0.94700
Al97       Al  0.23584948  0.28638076  0.03769206     1.55600
O98         O  0.29833992  0.35770057  0.06705380    -0.77000
C99         C  0.26728288  0.25494658  0.47376262     0.98900
C100        C  0.26886131  0.25986003  0.09351471     0.93800
O101        O  0.27793989  0.28499557  0.10554910    -0.82300
N102        N  0.06673135  0.37799399  0.29181278    -0.03500
C103        C  0.03721077  0.38219015  0.28967192    -0.00900
C104        C  0.02859063  0.39878550  0.26131759    -0.23800
C105        C  0.05358349  0.40486017  0.24525038    -0.24000
C106        C  0.07672704  0.39192223  0.26448304    -0.01000
H107        H  0.00626106  0.40380505  0.25162498     0.12800
H108        H  0.05444292  0.41544573  0.22054183     0.12800
N109        N  0.31046229  0.58055967  0.42495970    -0.03500
C110        C  0.31293997  0.55094400  0.42603897    -0.00900
C111        C  0.31358816  0.53768811  0.39208751    -0.23800
C112        C  0.31121141  0.55994516  0.36917218    -0.24000
C113        C  0.30926973  0.58599162  0.39000375    -0.01000
H114        H  0.31478087  0.51431728  0.38477419     0.12800
H115        H  0.31075493  0.55743485  0.34041303     0.12800
O116        O  0.34008346  0.82418994  0.11985984    -0.81800
C117        C  0.31745960  0.75262184  0.23355678     0.97600
O118        O  0.34011433  0.75233472  0.21625096    -0.70900
O119        O  0.33480681  0.74362832  0.14661026    -0.74500
Al120      Al  0.35207456  0.77411873  0.17823020     1.49000
C121        C  0.32202220  0.74617043  0.11617534     0.92800
O122        O  0.26689796  0.79101090  0.13948826    -0.80700
O123        O  0.30553837  0.85067996  0.20460811    -0.74300
Al124      Al  0.30436580  0.80727538  0.13250475     1.90100
O125        O  0.26366535  0.80736514  0.19510567    -0.73300
O126        O  0.33871068  0.81611945  0.24391284    -0.73200
O127        O  0.29864057  0.77300953  0.23103853    -0.78900
O128        O  0.37401122  0.80097981  0.21064923    -0.77100
O129        O  0.32000464  0.79740455  0.17527701    -1.13200
O130        O  0.37102123  0.79111280  0.14093714    -0.72400
C131        C  0.36555526  0.81266139  0.12195397     0.98300
C132        C  0.25231906  0.79498154  0.16659595     0.94700
Al133      Al  0.30321358  0.81073703  0.21489488     1.55600
O134        O  0.31284714  0.77102092  0.10731665    -0.77000
C135        C  0.36566408  0.81303960  0.23933978     0.98900
C136        C  0.29619255  0.86195732  0.17632752     0.93800
O137        O  0.29206101  0.84615120  0.14770635    -0.82300
N138        N  0.52834727  0.86274919  0.46774777    -0.03500
C139        C  0.55607256  0.87315633  0.47634549    -0.00900
C140        C  0.56568189  0.88744103  0.44814878    -0.23800
C141        C  0.54383722  0.88550230  0.42134770    -0.24000
C142        C  0.52131368  0.87032884  0.43383890    -0.01000
H143        H  0.58741629  0.89606001  0.44607698     0.12800
H144        H  0.54492924  0.89277893  0.39477183     0.12800
C145        C  0.49631972  0.85934977  0.40969979    -0.19900
C146        C  0.50164250  0.83843018  0.38150140     0.36400
C147        C  0.47930310  0.83190639  0.35470813    -0.25800
C148        C  0.45184031  0.84616107  0.35519091     0.02800
C149        C  0.44618396  0.86649960  0.38400118     0.27600
C150        C  0.46853981  0.87279304  0.41118911    -0.25000
N151        N  0.53011224  0.82452997  0.37976952    -0.82300
H152        H  0.48343925  0.81591775  0.33297730     0.13400
C153        C  0.42941049  0.83931361  0.32522592     0.02800
N154        N  0.41815565  0.88134312  0.38488470    -0.80900
H155        H  0.46477283  0.88915403  0.43265378     0.18200
C156        C  0.40250013  0.82747711  0.33234479    -0.25800
C157        C  0.38152815  0.81904978  0.30463881     0.36300
C158        C  0.38735422  0.82251782  0.26890409    -0.19800
C159        C  0.41432705  0.83427212  0.26168034    -0.25000
C160        C  0.43530070  0.84304026  0.28952979     0.27600
H161        H  0.39802437  0.82406150  0.35956087     0.13400
N162        N  0.35478271  0.80582990  0.31286929    -0.82300
H163        H  0.41887822  0.83693060  0.23431153     0.18200
N164        N  0.46251643  0.85580627  0.28178573    -0.80900
H165        H  0.34395067  0.82070553  0.32993514     0.33900
H166        H  0.36019021  0.78701461  0.32649647     0.38400
H167        H  0.46347944  0.85697205  0.25431912     0.33800
H168        H  0.46280078  0.87748199  0.29290598     0.30500
H169        H  0.41757588  0.89559548  0.40775693     0.33800
H170        H  0.41586374  0.89446036  0.36313186     0.30500
H171        H  0.53364746  0.81191441  0.40184014     0.38400
H172        H  0.53057059  0.80991888  0.35718593     0.33900
C173        C  0.50487077  0.85498487  0.99074984    -0.19900
C174        C  0.48782930  0.82932782  0.98502275     0.36400
C175        C  0.46515359  0.82452205  0.00725778    -0.25800
C176        C  0.45905435  0.84488192  0.03546892     0.02800
C177        C  0.47637290  0.87035941  0.04179465     0.27600
C178        C  0.49919139  0.87504918  0.01952900    -0.25000
N179        N  0.49373975  0.80783167  0.95696972    -0.82300
H180        H  0.45221378  0.80471770  0.00247867     0.13400
C181        C  0.43469957  0.83895503  0.05830750     0.02800
N182        N  0.47032781  0.89160173  0.07035534    -0.80900
H183        H  0.51359769  0.89540212  0.52504827     0.18200
C184        C  0.44145181  0.83024335  0.09292540    -0.25800
C185        C  0.41918360  0.82242301  0.11430116     0.36300
C186        C  0.38935011  0.82357415  0.10123542    -0.19800
C187        C  0.38253513  0.83345420  0.06704290    -0.25000
C188        C  0.40491470  0.84094510  0.04538492     0.27600
H189        H  0.46423360  0.82888636  0.10316228     0.13400
N190        N  0.42700580  0.81344042  0.14943773    -0.82300
H191        H  0.35975576  0.83438569  0.05672527     0.18200
N192        N  0.39758840  0.85015643  0.01011100    -0.80900
H193        H  0.43857781  0.83055928  0.16379197     0.33900
H194        H  0.44110144  0.79515598  0.14733091     0.38400
H195        H  0.37480708  0.85028208  0.00443768     0.33800
H196        H  0.40440051  0.87193155  0.00961479     0.30500
H197        H  0.48530774  0.91005159  0.57137936     0.33800
H198        H  0.44935127  0.90043359  0.06452583     0.30500
H199        H  0.49884525  0.78787907  0.96827945     0.38400
H200        H  0.47448086  0.80491927  0.94035268     0.33900
C201        C  0.30623203  0.61510988  0.37491720    -0.19900
C202        C  0.32779883  0.63695409  0.38241933     0.36400
C203        C  0.32678376  0.66183368  0.36213949    -0.25800
C204        C  0.30495649  0.66477446  0.33437440     0.02800
C205        C  0.28245247  0.64389999  0.32841286     0.27600
C206        C  0.28336439  0.61917984  0.34869866    -0.25000
N207        N  0.35146516  0.63303588  0.40905667    -0.82300
H208        H  0.34398084  0.67808305  0.36653538     0.13400
C209        C  0.30776504  0.68763870  0.30891223     0.02800
N210        N  0.25946868  0.64739130  0.30078917    -0.80900
H211        H  0.26679762  0.60238026  0.34313547     0.18200
C212        C  0.31809488  0.67921994  0.27556980    -0.25800
C213        C  0.32113292  0.69996501  0.25023399     0.36300
C214        C  0.31351474  0.72965836  0.25851289    -0.19800
C215        C  0.30284863  0.73797241  0.29180735    -0.25000
C216        C  0.30005358  0.71721469  0.31722984     0.27600
H217        H  0.32383043  0.65633108  0.26939575     0.13400
N218        N  0.33159252  0.69097001  0.21609431    -0.82300
H219        H  0.29724502  0.76085524  0.29823920     0.18200
N220        N  0.28962794  0.72598611  0.35143327    -0.80900
H221        H  0.33626584  0.66837661  0.21432606     0.33900
H222        H  0.31451475  0.69453565  0.19674495     0.38400
H223        H  0.28519013  0.74863370  0.35345837     0.33800
H224        H  0.26962679  0.71550674  0.35316660     0.30500
H225        H  0.24476592  0.62993308  0.29953812     0.33800
H226        H  0.24754217  0.66647239  0.30781658     0.30500
H227        H  0.36396236  0.61477475  0.40051884     0.38400
H228        H  0.36544017  0.65112027  0.41124936     0.33900
C229        C  0.31578148  0.60255649  0.95554910    -0.19900
C230        C  0.34155254  0.61010956  0.97674705     0.36400
C231        C  0.34034607  0.63155187  0.00511334    -0.25800
C232        C  0.31367568  0.64551288  0.01285945     0.02800
C233        C  0.28761171  0.63725212  0.99224536     0.27600
C234        C  0.28899909  0.61594247  0.96357086    -0.25000
N235        N  0.36914193  0.59668079  0.96885611    -0.82300
H236        H  0.36050324  0.63797527  0.02048084     0.13400
C237        C  0.31390652  0.67036739  0.04057152     0.02800
N238        N  0.25995565  0.65069497  0.00040426    -0.80900
H239        H  0.26621426  0.61828219  0.43536141     0.18200
C240        C  0.30399009  0.69811438  0.03068022    -0.25800
C241        C  0.30584897  0.72283218  0.05492002     0.36300
C242        C  0.31815846  0.72008790  0.09016414    -0.19800
C243        C  0.32750322  0.69202836  0.10026078    -0.25000
C244        C  0.32541418  0.66715599  0.07586666     0.27600
H245        H  0.29534609  0.70080597  0.00354099     0.13400
N246        N  0.29557839  0.75071547  0.04315941    -0.82300
H247        H  0.33667243  0.68945524  0.12719282     0.18200
N248        N  0.33500277  0.63867709  0.08671016    -0.80900
H249        H  0.27338142  0.74875425  0.03432492     0.33900
H250        H  0.30727083  0.75557609  0.02152421     0.38400
H251        H  0.34295171  0.64003166  0.11346421     0.33800
H252        H  0.31657418  0.62515800  0.08478403     0.30500
H253        H  0.24298505  0.64225682  0.98269207     0.33800
H254        H  0.25544226  0.64477876  0.02572227     0.30500
H255        H  0.37786702  0.58685013  0.99162495     0.38400
H256        H  0.38353517  0.61334476  0.96409393     0.33900
C257        C  0.29893989  0.40247415  0.03774724    -0.19900
C258        C  0.31886694  0.40560855  0.50432215     0.36400
C259        C  0.32241669  0.43503960  0.49741829    -0.25800
C260        C  0.30789224  0.45784929  0.51628010     0.02800
C261        C  0.28199908  0.45373157  0.03979613     0.27600
C262        C  0.27894526  0.42439680  0.04863874    -0.25000
N263        N  0.33350653  0.38256093  0.48410627    -0.82300
H264        H  0.33564968  0.44012516  0.47599492     0.13400
C265        C  0.30935709  0.48788720  0.50342075     0.02800
N266        N  0.26075369  0.47589246  0.04969819    -0.80900
H267        H  0.26009961  0.41830365  0.06228407     0.18200
C268        C  0.28328593  0.50158596  0.49039348    -0.25800
C269        C  0.28411369  0.52471355  0.46761863     0.36300
C270        C  0.31144652  0.53397106  0.45768568    -0.19800
C271        C  0.33745497  0.52184863  0.47278729    -0.25000
C272        C  0.33669502  0.49950841  0.49648447     0.27600
H273        H  0.26227459  0.49256968  0.49538865     0.13400
N274        N  0.25736420  0.53700171  0.45195083    -0.82300
H275        H  0.35838967  0.52858562  0.46442556     0.18200
N276        N  0.35427059  0.50231539  0.03154267    -0.80900
H277        H  0.23908900  0.52722958  0.46123105     0.33900
H278        H  0.25654575  0.55926890  0.46070492     0.38400
H279        H  0.37104414  0.51752151  0.03032107     0.33800
H280        H  0.34602116  0.50614608  0.05657259     0.30500
H281        H  0.24473916  0.46694148  0.06407140     0.33800
H282        H  0.27173149  0.49173710  0.06690550     0.30500
H283        H  0.34808846  0.37186040  0.50182147     0.38400
H284        H  0.34623786  0.39135069  0.46558279     0.33900
C285        C  0.20868028  0.34070411  0.12612172    -0.19900
C286        C  0.21956518  0.34539279  0.16205660     0.36400
C287        C  0.20061767  0.35653330  0.18751677    -0.25800
C288        C  0.17123025  0.36316501  0.17758852     0.02800
C289        C  0.16048195  0.35913936  0.14159247     0.27600
C290        C  0.17934020  0.34765972  0.11612195    -0.25000
N291        N  0.24958178  0.33801810  0.17265535    -0.82300
H292        H  0.20853808  0.35945684  0.21530544     0.13400
C293        C  0.15111888  0.37173426  0.20545606     0.02800
N294        N  0.13042153  0.36648180  0.13123925    -0.80900
H295        H  0.17122045  0.34417216  0.08845584     0.18200
C296        C  0.14207726  0.40115843  0.21059752    -0.25800
C297        C  0.11999156  0.40918572  0.23341217     0.36300
C298        C  0.10603816  0.38702680  0.25049638    -0.19800
C299        C  0.11689639  0.35798927  0.24743579    -0.25000
C300        C  0.13937291  0.35012348  0.22507735     0.27600
H301        H  0.15178606  0.41786226  0.19617143     0.13400
N302        N  0.11228102  0.43985290  0.23848167    -0.82300
H303        H  0.10622239  0.34085773  0.26007621     0.18200
N304        N  0.14935629  0.32003491  0.22084413    -0.80900
H305        H  0.10177983  0.44635685  0.21465694     0.33900
H306        H  0.09776006  0.44361484  0.25846901     0.38400
H307        H  0.13866426  0.30690598  0.23742214     0.33800
H308        H  0.14332442  0.31219719  0.19467472     0.30500
H309        H  0.12611860  0.36257583  0.10372853     0.33800
H310        H  0.11701331  0.35228777  0.14325879     0.30500
H311        H  0.25214279  0.31521828  0.16830300     0.38400
H312        H  0.25409136  0.34293506  0.19996271     0.33900
C313        C  0.19502467  0.32720286  0.45393896    -0.19900
C314        C  0.16530883  0.32856233  0.46295669     0.36400
C315        C  0.14283281  0.33539704  0.43700012    -0.25800
C316        C  0.14934220  0.34149082  0.40259403     0.02800
C317        C  0.17877126  0.34068433  0.39365780     0.27600
C318        C  0.20123672  0.33356341  0.41928822    -0.25000
N319        N  0.15791118  0.32311714  0.49828317    -0.82300
H320        H  0.12014380  0.33651570  0.44376570     0.13400
C321        C  0.12551404  0.35049070  0.37648002     0.02800
N322        N  0.18566919  0.34716728  0.35847142    -0.80900
H323        H  0.22373784  0.33263848  0.41186434     0.18200
C324        C  0.12289108  0.38025363  0.36946872    -0.25800
C325        C  0.10258473  0.38964903  0.34270463     0.36300
C326        C  0.08478967  0.36885483  0.32219271    -0.19800
C327        C  0.08645445  0.33917983  0.33013685    -0.25000
C328        C  0.10682325  0.32973845  0.35715041     0.27600
H329        H  0.13715929  0.39611117  0.38456498     0.13400
N330        N  0.10020362  0.42024965  0.33564468    -0.82300
H331        H  0.07281432  0.32328310  0.31428416     0.18200
N332        N  0.10911559  0.29919258  0.36449553    -0.80900
H333        H  0.11487003  0.43275624  0.35288602     0.33900
H334        H  0.07905286  0.42749514  0.34120120     0.38400
H335        H  0.09376137  0.28683367  0.34805375     0.33800
H336        H  0.12989836  0.29154961  0.35792175     0.30500
H337        H  0.20835920  0.34588161  0.35614705     0.33800
H338        H  0.17625323  0.33083098  0.34056803     0.30500
H339        H  0.16664702  0.34023989  0.51552551     0.38400
H340        H  0.13513470  0.32409794  0.50003556     0.33900
C341        C  0.27305696  0.23390137  0.11524768    -0.19900
C342        C  0.27380445  0.20495725  0.09906320     0.36400
C343        C  0.27367379  0.18079614  0.12032230    -0.25800
C344        C  0.27253686  0.18477183  0.15740017     0.02800
C345        C  0.27348501  0.21366438  0.17377952     0.27600
C346        C  0.27408760  0.23788915  0.15253888    -0.25000
N347        N  0.27438560  0.20016395  0.06105594    -0.82300
H348        H  0.27382751  0.15865009  0.10782559     0.13400
C349        C  0.26870083  0.15862439  0.17836448     0.02800
N350        N  0.27272581  0.21837216  0.21176613    -0.80900
H351        H  0.27377820  0.26001314  0.16507280     0.18200
C352        C  0.28806893  0.15373797  0.20814525    -0.25800
C353        C  0.28371281  0.13054670  0.22997185     0.36300
C354        C  0.25966394  0.11155127  0.22154636    -0.19800
C355        C  0.24120508  0.11555746  0.19081450    -0.25000
C356        C  0.24516447  0.13904699  0.16941353     0.27600
H357        H  0.30645248  0.16836474  0.21465499     0.13400
N358        N  0.30334140  0.12655671  0.26087174    -0.82300
H359        H  0.22265085  0.10110222  0.18459400     0.18200
N360        N  0.22475080  0.14367569  0.13934516    -0.80900
H361        H  0.31960842  0.14262957  0.26357430     0.33900
H362        H  0.31408211  0.10628204  0.25725308     0.38400
H363        H  0.20882189  0.12727902  0.13633713     0.33800
H364        H  0.21365781  0.16359952  0.14468194     0.30500
H365        H  0.27373387  0.24083367  0.21957725     0.33800
H366        H  0.25241225  0.21110111  0.21863243     0.30500
H367        H  0.29413636  0.20856157  0.05387428     0.38400
H368        H  0.27456909  0.17765741  0.05339721     0.33900
C369        C  0.26778813  0.23073452  0.44542470    -0.19900
C370        C  0.25007457  0.20548861  0.44534529     0.36400
C371        C  0.24975786  0.18453756  0.41625904    -0.25800
C372        C  0.26625169  0.18846231  0.38715415     0.02800
C373        C  0.28453084  0.21298315  0.38742422     0.27600
C374        C  0.28522849  0.23386578  0.41663993    -0.25000
N375        N  0.23264118  0.20096385  0.47468512    -0.82300
H376        H  0.23606455  0.16527637  0.41585228     0.13400
C377        C  0.26399184  0.16631925  0.35675725     0.02800
N378        N  0.30190055  0.21673236  0.35782453    -0.80900
H379        H  0.29886219  0.25309342  0.41641024     0.18200
C380        C  0.24424472  0.17107375  0.32730349    -0.25800
C381        C  0.23842493  0.14850746  0.30055428     0.36300
C382        C  0.25265734  0.12107240  0.30343776    -0.19800
C383        C  0.27323291  0.11681453  0.33217462    -0.25000
C384        C  0.27922140  0.13930060  0.35879725     0.27600
H385        H  0.23245883  0.19188646  0.32588374     0.13400
N386        N  0.21718045  0.15300799  0.27150458    -0.82300
H387        H  0.28415070  0.09558687  0.33416584     0.18200
N388        N  0.29991507  0.13456923  0.38853790    -0.80900
H389        H  0.19716043  0.15887978  0.28201004     0.33900
H390        H  0.22402601  0.17072263  0.25806366     0.38400
H391        H  0.30894988  0.11332273  0.38622968     0.33800
H392        H  0.31728102  0.14910184  0.38745646     0.30500
H393        H  0.31398763  0.23612769  0.36201959     0.33800
H394        H  0.31719598  0.19938552  0.35671643     0.30500
H395        H  0.21467671  0.21549404  0.47297480     0.38400
H396        H  0.22374688  0.17984318  0.47212560     0.33900
C397        C  0.25324168  0.04252313  0.20568774    -0.19900
C398        C  0.28311272  0.03398353  0.20543407     0.36400
C399        C  0.29051318  0.00577236  0.19103995    -0.25800
C400        C  0.26860172  0.98634386  0.17671994     0.02800
C401        C  0.23930055  0.99642014  0.17227570     0.27600
C402        C  0.23188780  0.02463178  0.18667218    -0.25000
N403        N  0.30542541  0.05255122  0.22337227    -0.82300
H404        H  0.31306293  0.99790038  0.19404986     0.13400
C405        C  0.27534741  0.95443698  0.17516779     0.02800
N406        N  0.21688365  0.97691148  0.15630719    -0.80900
H407        H  0.20894566  0.03121162  0.18687901     0.18200
C408        C  0.27146425  0.93935983  0.20560192    -0.25800
C409        C  0.27823743  0.90924398  0.20670133     0.36300
C410        C  0.28929236  0.89388469  0.17661058    -0.19800
C411        C  0.29295990  0.90904689  0.14598215    -0.25000
C412        C  0.28625147  0.93931805  0.14507552     0.27600
H413        H  0.26306360  0.95127344  0.22865663     0.13400
N414        N  0.27342010  0.89417990  0.23800793    -0.82300
H415        H  0.30140442  0.89730328  0.12286435     0.18200
N416        N  0.29085689  0.95481592  0.11408780    -0.80900
H417        H  0.26554828  0.90878627  0.25780999     0.33900
H418        H  0.25683544  0.87881826  0.23107555     0.38400
H419        H  0.29936621  0.94055314  0.09439785     0.33800
H420        H  0.27032104  0.96203528  0.10364048     0.30500
H421        H  0.19631801  0.98743772  0.15587886     0.33800
H422        H  0.22135933  0.97218204  0.12973544     0.30500
H423        H  0.30682566  0.07077856  0.20822826     0.38400
H424        H  0.32597885  0.04202556  0.22332154     0.33900
C425        C  0.08347596  0.75713287  0.22732309    -0.19900
C426        C  0.09183666  0.78577490  0.22066645     0.36400
C427        C  0.11660280  0.78956572  0.20133473    -0.25800
C428        C  0.13283788  0.76522843  0.18804369     0.02800
C429        C  0.12220279  0.73660401  0.19114120     0.27600
C430        C  0.09795817  0.73284440  0.21132108    -0.25000
N431        N  0.07687457  0.81086917  0.23643860    -0.82300
H432        H  0.12458397  0.81158417  0.19911714     0.13400
C433        C  0.16314159  0.76986878  0.17692688     0.02800
N434        N  0.13709475  0.71143835  0.17541416    -0.80900
H435        H  0.09156752  0.71084284  0.21662648     0.18200
C436        C  0.18678225  0.75516480  0.19439229    -0.25800
C437        C  0.21604350  0.76185989  0.18931924     0.36300
C438        C  0.22200893  0.78398950  0.16659687    -0.19800
C439        C  0.19862593  0.79774929  0.14763413    -0.25000
C440        C  0.16916275  0.79084982  0.15252909     0.27600
H441        H  0.18242689  0.73930510  0.21342782     0.13400
N442        N  0.23984952  0.74691618  0.20805761    -0.82300
H443        H  0.20333282  0.81474149  0.13019831     0.18200
N444        N  0.14536192  0.80551837  0.13352338    -0.80900
H445        H  0.23184458  0.73139490  0.22398916     0.33900
H446        H  0.25183873  0.73517588  0.18907511     0.38400
H447        H  0.15344630  0.82038848  0.11682602     0.33800
H448        H  0.13387310  0.78954670  0.11704591     0.30500
H449        H  0.12670017  0.69200048  0.18039187     0.33800
H450        H  0.13513692  0.71295912  0.14782532     0.30500
H451        H  0.05548166  0.81115657  0.22447853     0.38400
H452        H  0.08656065  0.83038802  0.23039159     0.33900
C453        C  0.72437641  0.81941579  0.02505831    -0.19900
C454        C  0.71190348  0.83347449  0.49227621     0.36400
C455        C  0.68174181  0.83979539  0.49433489    -0.25800
C456        C  0.66364543  0.83384771  0.02752345     0.02800
C457        C  0.68067837  0.82846700  0.05914959     0.27600
C458        C  0.71087646  0.82135605  0.05762489    -0.25000
N459        N  0.72544595  0.83705205  0.45965078    -0.82300
H460        H  0.66886391  0.84694792  0.47111908     0.13400
C461        C  0.63237737  0.84386782  0.02704083     0.02800
N462        N  0.66723314  0.82987106  0.09249393    -0.80900
H463        H  0.72393743  0.81737864  0.08202644     0.18200
C464        C  0.61464267  0.82498584  0.51727163    -0.25800
C465        C  0.58550038  0.83329426  0.50650498     0.36300
C466        C  0.57812736  0.86347016  0.50455341    -0.19800
C467        C  0.59889522  0.88447571  0.51867448    -0.25000
C468        C  0.62547430  0.87418863  0.02772721     0.27600
H469        H  0.62103665  0.80192610  0.51579926     0.13400
N470        N  0.56431894  0.81123754  0.49425729    -0.82300
H471        H  0.59252727  0.90668562  0.01363473     0.18200
N472        N  0.64823238  0.89544222  0.03676727    -0.80900
H473        H  0.57380384  0.79019844  0.49512376     0.33900
H474        H  0.54813485  0.81219841  0.51250720     0.38400
H475        H  0.63991895  0.91682390  0.03442559     0.33800
H476        H  0.65513626  0.89389005  0.06359540     0.30500
H477        H  0.68267409  0.82485296  0.11316452     0.33800
H478        H  0.66036357  0.85158133  0.09809559     0.30500
H479        H  0.74027993  0.85437684  0.46443843     0.38400
H480        H  0.70986964  0.84343727  0.43982350     0.33900
C481        C  0.89848424  0.79385304  0.10496507    -0.19900
C482        C  0.89395343  0.77862084  0.13552058     0.36400
C483        C  0.91807117  0.77237904  0.15939647    -0.25800
C484        C  0.94647670  0.78128294  0.15366787     0.02800
C485        C  0.95123206  0.79605197  0.12305934     0.27600
C486        C  0.92719440  0.80218964  0.09899180    -0.25000
N487        N  0.86483920  0.77045136  0.14294835    -0.82300
H488        H  0.91464834  0.76115164  0.18313796     0.13400
C489        C  0.97072834  0.77615858  0.18098275     0.02800
N490        N  0.98039495  0.80486993  0.11670459    -0.80900
H491        H  0.93084790  0.81381493  0.07562060     0.18200
C492        C  0.98864419  0.75098913  0.17723252    -0.25800
C493        C  0.01077682  0.74475171  0.20376531     0.36300
C494        C  0.01548514  0.76448872  0.23411363    -0.19800
C495        C  0.99756900  0.78972383  0.23765886    -0.25000
C496        C  0.97515857  0.79571279  0.21142997     0.27600
H497        H  0.98484354  0.73586613  0.15396287     0.13400
N498        N  0.02788148  0.71803127  0.20062148    -0.82300
H499        H  0.00124558  0.80485008  0.26090231     0.18200
N500        N  0.95658284  0.82134701  0.21572375    -0.80900
H501        H  0.02163810  0.70582201  0.17687284     0.33900
H502        H  0.02308119  0.70522383  0.22137033     0.38400
H503        H  0.96238185  0.83321453  0.23985775     0.33800
H504        H  0.96044269  0.83509494  0.19552817     0.30500
H505        H  0.98020335  0.81527353  0.09283284     0.33800
H506        H  0.98724450  0.82056861  0.13701105     0.30500
H507        H  0.85285794  0.78987540  0.14811588     0.38400
H508        H  0.86544582  0.75904000  0.16611350     0.33900
C509        C  0.89544379  0.79468018  0.43644266    -0.19900
C510        C  0.92405629  0.78517453  0.44794192     0.36400
C511        C  0.94495768  0.77903254  0.42270038    -0.25800
C512        C  0.93777908  0.78183440  0.38628192     0.02800
C513        C  0.90911181  0.79049021  0.37463082     0.27600
C514        C  0.88816646  0.79660256  0.39976357    -0.25000
N515        N  0.93179987  0.78177581  0.48508209    -0.82300
H516        H  0.96704636  0.77218205  0.43141175     0.13400
C517        C  0.96091928  0.77675586  0.36083520     0.02800
N518        N  0.90163324  0.79368095  0.33740476    -0.80900
H519        H  0.86634122  0.80397948  0.39072065     0.18200
C520        C  0.96082826  0.75091934  0.33827012    -0.25800
C521        C  0.98363198  0.74470647  0.31579019     0.36300
C522        C  0.00674233  0.76486733  0.31541389    -0.19800
C523        C  0.00632559  0.79106964  0.33722418    -0.25000
C524        C  0.98353436  0.79730965  0.35980218     0.27600
H525        H  0.94344637  0.73509473  0.33900659     0.13400
N526        N  0.98350200  0.71727544  0.29482785    -0.82300
H527        H  0.02429370  0.80634230  0.33724873     0.18200
N528        N  0.98349186  0.82413505  0.38222968    -0.80900
H529        H  0.98351050  0.72174596  0.26804864     0.33900
H530        H  0.00281145  0.70565188  0.30178633     0.38400
H531        H  0.00179778  0.83678140  0.37852641     0.33800
H532        H  0.96496080  0.83646233  0.37404051     0.30500
H533        H  0.87961918  0.80017536  0.33317049     0.33800
H534        H  0.91423616  0.81076742  0.32963632     0.30500
H535        H  0.91888047  0.76497635  0.49296657     0.38400
H536        H  0.95368703  0.77478989  0.48903116     0.33900
C537        C  0.85424030  0.00833236  0.23912946    -0.19900
C538        C  0.87023064  0.00331617  0.20874208     0.36400
C539        C  0.86034419  0.98259583  0.18153559    -0.25800
C540        C  0.83469551  0.96660290  0.18424734     0.02800
C541        C  0.81761359  0.97292619  0.21356644     0.27600
C542        C  0.82758798  0.99378810  0.24080090    -0.25000
N543        N  0.89754843  0.01787863  0.20657602    -0.82300
H544        H  0.87365323  0.97778371  0.15916841     0.13400
C545        C  0.82794490  0.94127083  0.15825571     0.02800
N546        N  0.79065432  0.95755533  0.21590231    -0.80900
H547        H  0.81511833  0.99803538  0.26396358     0.18200
C548        C  0.82779260  0.91290143  0.17058875    -0.25800
C549        C  0.82517225  0.88778569  0.14679979     0.36300
C550        C  0.82300172  0.89118918  0.10968805    -0.19800
C551        C  0.82192479  0.91977524  0.09754601    -0.25000
C552        C  0.82432230  0.94481124  0.12142246     0.27600
H553        H  0.83083904  0.91031653  0.19896696     0.13400
N554        N  0.82635430  0.85897560  0.16030347    -0.82300
H555        H  0.81994884  0.92262033  0.06920154     0.18200
N556        N  0.82373387  0.97379664  0.10845407    -0.80900
H557        H  0.83003085  0.86044477  0.18804251     0.33900
H558        H  0.80558657  0.84969124  0.15470359     0.38400
H559        H  0.82114041  0.97260043  0.08063179     0.33800
H560        H  0.80515088  0.98482250  0.11755559     0.30500
H561        H  0.78083194  0.96459639  0.23923275     0.33800
H562        H  0.77617959  0.96332201  0.19464325     0.30500
H563        H  0.89598544  0.02944615  0.18350963     0.38400
H564        H  0.91407045  0.00181423  0.20401632     0.33900
C565        C  0.86057667  0.98979073  0.31690263    -0.19900
C566        C  0.86759977  0.95958928  0.31077140     0.36400
C567        C  0.85498058  0.93907044  0.33111476    -0.25800
C568        C  0.83548173  0.94820143  0.35699116     0.02800
C569        C  0.82656153  0.97794057  0.36058605     0.27600
C570        C  0.83930678  0.99844259  0.34061693    -0.25000
N571        N  0.88831624  0.94918168  0.28571072    -0.82300
H572        H  0.86180402  0.91616140  0.32823386     0.13400
C573        C  0.82856888  0.92791086  0.38419314     0.02800
N574        N  0.80556597  0.98730012  0.38577184    -0.80900
H575        H  0.83344530  0.02156228  0.34449866     0.18200
C576        C  0.83841549  0.93538996  0.41969387    -0.25800
C577        C  0.83495478  0.91619640  0.44645959     0.36300
C578        C  0.82168839  0.88870516  0.43748663    -0.19800
C579        C  0.81033964  0.88178464  0.40230007    -0.25000
C580        C  0.81373120  0.90121124  0.37542115     0.27600
H581        H  0.84968570  0.95601873  0.42635351     0.13400
N582        N  0.84551341  0.92416388  0.48263458    -0.82300
H583        H  0.80026988  0.86057183  0.39542606     0.18200
N584        N  0.80281012  0.89374770  0.33929293    -0.80900
H585        H  0.85488162  0.94506576  0.48472209     0.33900
H586        H  0.82730516  0.92557459  0.49797219     0.38400
H587        H  0.79255228  0.87327810  0.33729953     0.33800
H588        H  0.78657268  0.90928729  0.33249032     0.30500
H589        H  0.80163200  0.00998137  0.38553923     0.33800
H590        H  0.78567389  0.97704446  0.37740476     0.30500
H591        H  0.89662692  0.96645016  0.27280670     0.38400
H592        H  0.87692569  0.93565470  0.26600589     0.33900
C593        C  0.80593781  0.71827944  0.00750854    -0.19900
C594        C  0.80223682  0.70056362  0.03615338     0.36400
C595        C  0.79768934  0.67023824  0.02919753    -0.25800
C596        C  0.79767652  0.65687050  0.99452596     0.02800
C597        C  0.79452195  0.67815149  0.46090181     0.27600
C598        C  0.80126155  0.70806227  0.46781619    -0.25000
N599        N  0.80286263  0.71326895  0.07214425    -0.82300
H600        H  0.79362007  0.65692340  0.05101177     0.13400
C601        C  0.79037062  0.62514395  0.98887778     0.02800
N602        N  0.79037308  0.66548989  0.42497674    -0.80900
H603        H  0.80298155  0.72156360  0.44553342     0.18200
C604        C  0.76541946  0.61655230  0.96674154    -0.25800
C605        C  0.75274649  0.58885943  0.96908257     0.36300
C606        C  0.76510855  0.56987546  0.99420870    -0.19800
C607        C  0.79183240  0.57719464  0.01327112    -0.25000
C608        C  0.80493963  0.60442295  0.01026881     0.27600
H609        H  0.75436182  0.63233178  0.94996635     0.13400
N610        N  0.72597632  0.58090569  0.94846017    -0.82300
H611        H  0.80097292  0.56294366  0.03324404     0.18200
N612        N  0.82896332  0.61170705  0.50874953    -0.80900
H613        H  0.71946083  0.59742279  0.93149457     0.33900
H614        H  0.73051053  0.56213065  0.93214206     0.38400
H615        H  0.83849436  0.59276016  0.51909906     0.33800
H616        H  0.83958834  0.61520050  0.48581298     0.30500
H617        H  0.79332925  0.68135318  0.40683335     0.33800
H618        H  0.80685071  0.64952453  0.42145344     0.30500
H619        H  0.82417626  0.72083158  0.07905734     0.38400
H620        H  0.79902535  0.69726711  0.08980156     0.33900
C621        C  0.86777180  0.32031711  0.29090595    -0.19900
C622        C  0.88608648  0.32090460  0.26228627     0.36400
C623        C  0.91620837  0.32671369  0.26950937    -0.25800
C624        C  0.92869156  0.33131396  0.30456436     0.02800
C625        C  0.91072741  0.32989350  0.33312616     0.27600
C626        C  0.88053693  0.32462118  0.32603544    -0.25000
N627        N  0.87413382  0.31645067  0.22602070    -0.82300
H628        H  0.93000658  0.32826855  0.24755591     0.13400
C629        C  0.95996720  0.34026891  0.31037149     0.02800
N630        N  0.92321620  0.33395612  0.36920358    -0.80900
H631        H  0.86692656  0.32380132  0.34827384     0.18200
C632        C  0.96663235  0.36770064  0.32815602    -0.25800
C633        C  0.99421198  0.38039323  0.32661645     0.36300
C634        C  0.01560850  0.36533953  0.30685333    -0.19800
C635        C  0.01012350  0.33650573  0.29260837    -0.25000
C636        C  0.98244570  0.32374971  0.29423250     0.27600
H637        H  0.94961724  0.38039661  0.34103128     0.13400
N638        N  0.99917082  0.40933542  0.34344983    -0.82300
H639        H  0.02632550  0.32515291  0.27689425     0.18200
N640        N  0.97643979  0.29490255  0.27764412    -0.80900
H641        H  0.98550647  0.42407994  0.32970876     0.33900
H642        H  0.02083490  0.41586185  0.34174746     0.38400
H643        H  0.99516747  0.28586733  0.26648669     0.33800
H644        H  0.97156888  0.28137030  0.29766214     0.30500
H645        H  0.90701814  0.33243714  0.38717940     0.33800
H646        H  0.93808597  0.31660731  0.37353817     0.30500
H647        H  0.86831130  0.29430940  0.22178076     0.38400
H648        H  0.89019134  0.31973217  0.20835333     0.33900
C649        C  0.86425654  0.07663856  0.25193218    -0.19900
C650        C  0.88108058  0.10061968  0.24385329     0.36400
C651        C  0.86723410  0.12807016  0.23958339    -0.25800
C652        C  0.83703622  0.13184327  0.24370207     0.02800
C653        C  0.81970818  0.10707957  0.24755247     0.27600
C654        C  0.83351488  0.07951260  0.25106790    -0.25000
N655        N  0.91240257  0.09742889  0.24271270    -0.82300
H656        H  0.88033219  0.14709190  0.23581454     0.13400
C657        C  0.82497054  0.16206267  0.24969447     0.02800
N658        N  0.78858840  0.11042069  0.25074507    -0.80900
H659        H  0.82055719  0.06110004  0.25735252     0.18200
C660        C  0.80220167  0.17240675  0.22663425    -0.25800
C661        C  0.79019949  0.20088052  0.23241987     0.36300
C662        C  0.80152690  0.21941641  0.26176816    -0.19800
C663        C  0.82383269  0.20857992  0.28522367    -0.25000
C664        C  0.83553972  0.18011577  0.27961831     0.27600
H665        H  0.79384181  0.15820526  0.20406622     0.13400
N666        N  0.76661247  0.21092570  0.20864946    -0.82300
H667        H  0.83265210  0.22257048  0.30773915     0.18200
N668        N  0.85816233  0.16938027  0.30424165    -0.80900
H669        H  0.76112924  0.19473210  0.18836916     0.33900
H670        H  0.74807810  0.21418345  0.22325445     0.38400
H671        H  0.86370596  0.18546513  0.32465056     0.33800
H672        H  0.84953557  0.15175312  0.31628208     0.30500
H673        H  0.77908245  0.09002525  0.25336068     0.33800
H674        H  0.78555022  0.12318009  0.27433433     0.30500
H675        H  0.91636114  0.08224438  0.22150084     0.38400
H676        H  0.92165079  0.11728746  0.23707044     0.33900
C677        C  0.76795156  0.38653725  0.19998704    -0.19900
C678        C  0.75326001  0.41365724  0.20647347     0.36400
C679        C  0.75102410  0.43380716  0.17989517    -0.25800
C680        C  0.76312868  0.42727389  0.14714503     0.02800
C681        C  0.77904412  0.40085460  0.14126675     0.27600
C682        C  0.78158256  0.38081602  0.16799171    -0.25000
N683        N  0.74041764  0.42043266  0.23977108    -0.82300
H684        H  0.73926865  0.45447084  0.18435234     0.13400
C685        C  0.75774578  0.44792473  0.11885744     0.02800
N686        N  0.79155925  0.39405881  0.10776407    -0.80900
H687        H  0.79279307  0.35992272  0.16298411     0.18200
C688        C  0.78137893  0.46296965  0.10720043    -0.25800
C689        C  0.77650569  0.48478856  0.08282357     0.36300
C690        C  0.74746609  0.49125846  0.06984158    -0.19800
C691        C  0.72397799  0.47547424  0.08059135    -0.25000
C692        C  0.72888205  0.45356556  0.10475676     0.27600
H693        H  0.80349059  0.45842876  0.11818920     0.13400
N694        N  0.80070821  0.50126770  0.07245805    -0.82300
H695        H  0.70176769  0.48050321  0.07033662     0.18200
N696        N  0.70472764  0.43719472  0.11543472    -0.80900
H697        H  0.82060127  0.49367169  0.08431816     0.33900
H698        H  0.79806040  0.52309422  0.08234959     0.38400
H699        H  0.68491017  0.44410489  0.10270167     0.33800
H700        H  0.70787486  0.41515863  0.10665731     0.30500
H701        H  0.80254252  0.37370143  0.10775517     0.33800
H702        H  0.77422925  0.39189579  0.08806148     0.30500
H703        H  0.75753778  0.42151599  0.25981024     0.38400
H704        H  0.73033947  0.44124715  0.24016450     0.33900
C705        C  0.75405879  0.50709463  0.49562693    -0.19900
C706        C  0.78256755  0.49679888  0.48916136     0.36400
C707        C  0.78637750  0.47388009  0.46289259    -0.25800
C708        C  0.76202562  0.46086416  0.44342633     0.02800
C709        C  0.73344574  0.47099288  0.45004722     0.27600
C710        C  0.72979667  0.49414260  0.47593576    -0.25000
N711        N  0.80760309  0.50914093  0.50948746    -0.82300
H712        H  0.80834121  0.46588009  0.45808918     0.13400
C713        C  0.76628120  0.43576952  0.41716986     0.02800
N714        N  0.70825893  0.45706623  0.43125856    -0.80900
H715        H  0.72104958  0.47783577  0.99322463     0.18200
C716        C  0.76643412  0.40710005  0.42849629    -0.25800
C717        C  0.76673739  0.38246592  0.40388169     0.36300
C718        C  0.76697190  0.38673694  0.36709464    -0.19800
C719        C  0.76788988  0.41557831  0.35605838    -0.25000
C720        C  0.76769068  0.44014625  0.38076781     0.27600
H721        H  0.76529950  0.40399971  0.45657982     0.13400
N722        N  0.76571116  0.35327587  0.41606886    -0.82300
H723        H  0.76848440  0.41896597  0.32798889     0.18200
N724        N  0.76892298  0.46948989  0.36910684    -0.80900
H725        H  0.76609765  0.35405186  0.44386221     0.33900
H726        H  0.74553262  0.34420778  0.40643565     0.38400
H727        H  0.77039653  0.46887460  0.34154037     0.33800
H728        H  0.74912366  0.48025961  0.37424402     0.30500
H729        H  0.68883160  0.46663867  0.43993423     0.33800
H730        H  0.70859958  0.46109087  0.40435559     0.30500
H731        H  0.82142414  0.51749310  0.49179566     0.38400
H732        H  0.81896296  0.49211517  0.52202977     0.33900
C733        C  0.69609276  0.29171632  0.18613830    -0.19900
C734        C  0.70137198  0.28833797  0.14942922     0.36400
C735        C  0.67778531  0.28206333  0.12384137    -0.25800
C736        C  0.64914824  0.27847841  0.13386269     0.02800
C737        C  0.64378693  0.28153348  0.17019313     0.27600
C738        C  0.66717743  0.28816337  0.19586368    -0.25000
N739        N  0.73044901  0.29158356  0.13798714    -0.82300
H740        H  0.68181275  0.27942130  0.09585063     0.13400
C741        C  0.62526233  0.27014052  0.10609630     0.02800
N742        N  0.61450392  0.27802537  0.18081753    -0.80900
H743        H  0.66266503  0.29073234  0.22369042     0.18200
C744        C  0.61422056  0.24147580  0.10397193    -0.25800
C745        C  0.59358624  0.23188450  0.07646298     0.36300
C746        C  0.58318286  0.25132406  0.05056854    -0.19800
C747        C  0.59320308  0.28042920  0.05362247    -0.25000
C748        C  0.61427462  0.29001494  0.08105995     0.27600
H749        H  0.62253173  0.22610339  0.12311392     0.13400
N750        N  0.58443885  0.20185935  0.07449607    -0.82300
H751        H  0.58514523  0.29544530  0.03403729     0.18200
N752        N  0.62499513  0.31962145  0.08325395    -0.80900
H753        H  0.56165254  0.20160767  0.07583823     0.33900
H754        H  0.58956826  0.19180816  0.04995388     0.38400
H755        H  0.61492937  0.33137056  0.06269737     0.33800
H756        H  0.61869376  0.33002184  0.10710625     0.30500
H757        H  0.61416457  0.28085552  0.20851725     0.33800
H758        H  0.60139844  0.29487327  0.17032436     0.30500
H759        H  0.74310931  0.27366548  0.14649192     0.38400
H760        H  0.73011864  0.29013080  0.11019591     0.33900
C761        C  0.70604330  0.28254304  0.35718245    -0.19900
C762        C  0.67537519  0.28150510  0.34954868     0.36400
C763        C  0.65754656  0.27208061  0.37527810    -0.25800
C764        C  0.66971212  0.26421033  0.40869236     0.02800
C765        C  0.70042723  0.26520180  0.41625616     0.27600
C766        C  0.71830809  0.27397389  0.39021027    -0.25000
N767        N  0.66251952  0.28978778  0.31567842    -0.82300
H768        H  0.63398611  0.27080539  0.36925952     0.13400
C769        C  0.64980810  0.25470866  0.43508308     0.02800
N770        N  0.71323727  0.25794082  0.45056530    -0.80900
H771        H  0.74188379  0.27518494  0.39619835     0.18200
C772        C  0.65374987  0.22679794  0.44863039    -0.25800
C773        C  0.63316137  0.21560352  0.46989159     0.36300
C774        C  0.60792016  0.23266814  0.47744475    -0.19800
C775        C  0.60478403  0.26109688  0.46542696    -0.25000
C776        C  0.62565402  0.27247326  0.44475214     0.27600
H777        H  0.67231500  0.21307240  0.44140865     0.13400
N778        N  0.63803141  0.18656939  0.48213830    -0.82300
H779        H  0.58505973  0.27384708  0.47048629     0.18200
N780        N  0.62193556  0.30161568  0.43249006    -0.80900
H781        H  0.65760654  0.18698175  0.49836038     0.33900
H782        H  0.62162057  0.18097316  0.49830259     0.38400
H783        H  0.60285980  0.31165044  0.44161937     0.33800
H784        H  0.63959475  0.31418894  0.44389780     0.30500
H785        H  0.73611080  0.25981437  0.45181990     0.33800
H786        H  0.70568944  0.27355280  0.46951373     0.30500
H787        H  0.67009661  0.27479823  0.29606078     0.38400
H788        H  0.63965614  0.28783828  0.31434833     0.33900
C789        C  0.51384192  0.23996394  0.03508253    -0.19900
C790        C  0.48993028  0.22131956  0.03887160     0.36400
C791        C  0.46209874  0.23371631  0.04459054    -0.25800
C792        C  0.45788500  0.26429307  0.04740721     0.02800
C793        C  0.48329566  0.27722070  0.53620143     0.27600
C794        C  0.51112803  0.26382927  0.53297938    -0.25000
N795        N  0.49371327  0.18987279  0.03494389    -0.82300
H796        H  0.44332917  0.21953560  0.04523024     0.13400
C797        C  0.42744630  0.27631141  0.04696033     0.02800
N798        N  0.47958790  0.30853718  0.53462136    -0.80900
H799        H  0.52959473  0.27720942  0.52794451     0.18200
C800        C  0.41359767  0.28024635  0.07877353    -0.25800
C801        C  0.38399134  0.28947203  0.07899739     0.36300
C802        C  0.36792103  0.29535225  0.04640983    -0.19800
C803        C  0.38225656  0.29182135  0.01464052    -0.25000
C804        C  0.41172145  0.28212609  0.01455737     0.27600
H805        H  0.42581325  0.27544383  0.10348142     0.13400
N806        N  0.37046150  0.29287319  0.11229767    -0.82300
H807        H  0.37025631  0.29599870  0.98959449     0.18200
N808        N  0.42549633  0.27723331  0.98156322    -0.80900
H809        H  0.39060060  0.32174791  0.61465400     0.33900
H810        H  0.35587321  0.27546594  0.11280205     0.38400
H811        H  0.41076002  0.28184929  0.96004647     0.33800
H812        H  0.44262177  0.29221038  0.98181775     0.30500
H813        H  0.49980689  0.31840285  0.53215629     0.33800
H814        H  0.46646540  0.31236817  0.51145944     0.30500
H815        H  0.50852716  0.18377277  0.05573163     0.38400
H816        H  0.47396340  0.17933766  0.03794359     0.33900
N817        N  0.56823634  0.22998568  0.51974660    -0.03500
C818        C  0.54040041  0.21946902  0.51548906    -0.00900
C819        C  0.53525648  0.21112785  0.98404095    -0.23800
C820        C  0.56083015  0.21173940  0.96721126    -0.24000
C821        C  0.57973232  0.22965867  0.98872198    -0.01000
H822        H  0.51501366  0.20107639  0.97284928     0.12800
H823        H  0.56450121  0.20195526  0.94093694     0.12800
O824        O  0.82225961  0.31718665  0.74333320    -0.81800
C825        C  0.72805212  0.29497767  0.82914123     0.97600
O826        O  0.75533248  0.29333396  0.83673042    -0.70900
O827        O  0.78586322  0.25761078  0.79540122    -0.74500
Al828      Al  0.78927554  0.29790936  0.81136556     1.49000
C829        C  0.79403887  0.24627396  0.76626341     0.92800
O830        O  0.74901655  0.28201620  0.70983204    -0.80700
O831        O  0.75212016  0.36231508  0.74746010    -0.74300
Al832      Al  0.78474200  0.30001921  0.72925656     1.90100
O833        O  0.71740135  0.31339212  0.73266737    -0.73300
O834        O  0.75197366  0.35576432  0.81535933    -0.73200
O835        O  0.71845581  0.30606237  0.80086333    -0.78900
O836        O  0.79493129  0.33669066  0.83212507    -0.77100
O837        O  0.77048977  0.31013006  0.77145790    -1.13200
O838        O  0.82798392  0.29988690  0.79598926    -0.72400
C839        C  0.83853503  0.31205078  0.77082944     1.01500
C840        C  0.72309192  0.29215567  0.71077843     0.94700
Al841      Al  0.73791628  0.33237950  0.77385261     1.55600
O842        O  0.79799782  0.26195860  0.74086059    -0.77000
C843        C  0.77589203  0.35700289  0.83453792     0.98900
C844        C  0.76388827  0.35972542  0.71832005     0.93800
O845        O  0.77463036  0.33537785  0.70775972    -0.82300
N846        N  0.74869448  0.52911011  0.52370702    -0.03500
C847        C  0.73968715  0.55705977  0.51830500    -0.00900
C848        C  0.72344626  0.56819111  0.54588996    -0.23800
C849        C  0.72216347  0.54633413  0.56893876    -0.24000
C850        C  0.73767666  0.52277377  0.55454312    -0.01000
H851        H  0.71572300  0.59065872  0.55041253     0.12800
H852        H  0.71242791  0.54794822  0.59430387     0.12800
N853        N  0.86145880  0.02027613  0.77519968    -0.03500
C854        C  0.87402185  0.04708767  0.77717815    -0.00900
C855        C  0.89008008  0.05172767  0.80967063    -0.23800
C856        C  0.88668475  0.02720973  0.82821410    -0.24000
C857        C  0.86894549  0.00833983  0.80637658    -0.01000
H858        H  0.89992878  0.07213682  0.82064717     0.12800
H859        H  0.89374785  0.02477988  0.85588118     0.12800
O860        O  0.84096405  0.87057324  0.55091133    -0.81800
C861        C  0.80916042  0.75311801  0.50848404     0.97600
O862        O  0.80597811  0.76641424  0.53844126    -0.70900
O863        O  0.85366692  0.78825843  0.57360446    -0.74500
Al864      Al  0.81628144  0.80481595  0.55882881     1.49000
C865        C  0.87736250  0.80234057  0.57834494     0.92800
O866        O  0.87670492  0.81655884  0.99502338    -0.80700
O867        O  0.79683861  0.84351270  0.96718252    -0.74300
Al868      Al  0.85988973  0.84146016  0.52194555     1.90100
O869        O  0.84171978  0.80400282  0.95418293    -0.73300
O870        O  0.76760429  0.80347845  0.99623990    -0.73200
O871        O  0.81442153  0.76499731  0.98664525    -0.78900
O872        O  0.77738068  0.81955674  0.54999071    -0.77100
O873        O  0.82885459  0.81793230  0.51903935    -1.13200
O874        O  0.82379680  0.84074729  0.58740016    -0.72400
C875        C  0.83018643  0.86645622  0.58005085     0.98300
C876        C  0.86878492  0.80608406  0.96407442     0.94700
Al877      Al  0.80661193  0.80492163  0.97981824     1.55600
O878        O  0.88023136  0.82544052  0.56241929    -0.77000
C879        C  0.76093872  0.81735555  0.52161636     0.98900
C880        C  0.81515119  0.86373132  0.96632664     0.93800
O881        O  0.83929538  0.86337077  0.98488223    -0.82300
N882        N  0.03764640  0.76473948  0.76781876    -0.03500
C883        C  0.06692621  0.75906113  0.76638385    -0.00900
C884        C  0.07971064  0.75479268  0.80001418    -0.23800
C885        C  0.05777184  0.75822783  0.82305067    -0.24000
C886        C  0.03225657  0.76433176  0.80273675    -0.01000
H887        H  0.10283391  0.75118314  0.80724208     0.12800
H888        H  0.06029539  0.75734359  0.85170017     0.12800
N889        N  0.26063735  0.09234382  0.75056799    -0.03500
C890        C  0.25210533  0.06408165  0.74236672    -0.00900
C891        C  0.24117079  0.05241602  0.77150765    -0.23800
C892        C  0.24300765  0.07398765  0.79862662    -0.24000
C893        C  0.25482548  0.09822176  0.78516476    -0.01000
H894        H  0.23425948  0.02998631  0.77340682     0.12800
H895        H  0.23723622  0.07197200  0.82565377     0.12800
O896        O  0.32486731  0.29998145  0.56627325    -0.81800
C897        C  0.21856436  0.32124349  0.98104118     0.97600
O898        O  0.24504385  0.32105919  0.97273328    -0.70900
O899        O  0.28029188  0.35796164  0.01149120    -0.74500
Al900      Al  0.28285588  0.31727890  0.99948088     1.49000
C901        C  0.29283789  0.36760656  0.53333442     0.92800
O902        O  0.25461028  0.33604317  0.59347029    -0.80700
O903        O  0.25893658  0.25285972  0.56039040    -0.74300
Al904      Al  0.28856910  0.31724700  0.57709310     1.90100
O905        O  0.22361489  0.30055535  0.57730844    -0.73300
O906        O  0.24413653  0.26255774  0.99528054    -0.73200
O907        O  0.21284180  0.31328911  0.01107436    -0.78900
O908        O  0.28718359  0.27774629  0.98271473    -0.77100
O909        O  0.27037062  0.30419596  0.53550991    -1.13200
O910        O  0.32394264  0.31495807  0.01709462    -0.72400
C911        C  0.33835761  0.30177364  0.53865912     0.98300
C912        C  0.23056615  0.32365251  0.59626067     0.94700
Al913      Al  0.23842979  0.28207996  0.53490489     1.55600
O914        O  0.29906492  0.35500874  0.56178686    -0.77000
C915        C  0.26677714  0.25936620  0.97791227     0.98900
C916        C  0.27322452  0.25677322  0.59018952     0.93800
O917        O  0.28203383  0.28220596  0.60138712    -0.82300
N918        N  0.06990973  0.38299662  0.78907588    -0.03500
C919        C  0.04132648  0.39186943  0.78808698    -0.00900
C920        C  0.03585329  0.41171771  0.76213879    -0.23800
C921        C  0.06155731  0.41460576  0.74608374    -0.24000
C922        C  0.08207819  0.39669018  0.76301774    -0.01000
H923        H  0.01456390  0.42025112  0.75285284     0.12800
H924        H  0.06416787  0.42623961  0.72247618     0.12800
N925        N  0.31680153  0.58201348  0.92502995    -0.03500
C926        C  0.31538469  0.55222146  0.92473271    -0.00900
C927        C  0.31413758  0.54005071  0.89007905    -0.23800
C928        C  0.31401680  0.56304680  0.86835245    -0.24000
C929        C  0.31532839  0.58860583  0.89034314    -0.01000
H930        H  0.31174082  0.51699072  0.88148650     0.12800
H931        H  0.31178960  0.56139572  0.83953715     0.12800
O932        O  0.33875077  0.82558885  0.61582168    -0.81800
C933        C  0.31603964  0.75364859  0.72957711     0.97600
O934        O  0.33835387  0.75308895  0.71165129    -0.70900
O935        O  0.33228626  0.74472678  0.64193202    -0.74500
Al936      Al  0.35026623  0.77479778  0.67351673     1.49000
C937        C  0.31980423  0.74769090  0.61143263     0.92800
O938        O  0.26523707  0.79263569  0.63531739    -0.80700
O939        O  0.30502959  0.85167031  0.70039818    -0.74300
Al940      Al  0.30284477  0.80883139  0.62823991     1.90100
O941        O  0.26257088  0.80902028  0.69104726    -0.73300
O942        O  0.33771990  0.81694869  0.73917210    -0.73200
O943        O  0.29727689  0.77413564  0.72711081    -0.78900
O944        O  0.37280808  0.80124901  0.70599355    -0.77100
O945        O  0.31852868  0.79850000  0.67087712    -1.13200
O946        O  0.36916358  0.79170320  0.63614307    -0.72400
C947        C  0.36407179  0.81368827  0.61776002     0.98300
C948        C  0.25096878  0.79657035  0.66272388     0.94700
Al949      Al  0.30214385  0.81189036  0.71062757     1.55600
O950        O  0.31109105  0.77270313  0.60261287    -0.77000
C951        C  0.36463217  0.81353676  0.73467919     0.98900
C952        C  0.29549356  0.86336853  0.67251378     0.93800
O953        O  0.29074658  0.84785919  0.64375593    -0.82300
N954        N  0.52577533  0.86260176  0.96581317    -0.03500
C955        C  0.55360147  0.87281884  0.97405451    -0.00900
C956        C  0.56319488  0.88685935  0.94567761    -0.23800
C957        C  0.54117571  0.88499906  0.91907941    -0.24000
C958        C  0.51859246  0.87011034  0.93188062    -0.01000
H959        H  0.58500529  0.89518620  0.94332530     0.12800
H960        H  0.54221786  0.89202993  0.89238061     0.12800
C961        C  0.49362304  0.85909466  0.90776174    -0.19900
C962        C  0.49858688  0.83643372  0.88137394     0.36400
C963        C  0.47672183  0.82989009  0.85396517    -0.25800
C964        C  0.45042428  0.84627918  0.85150531     0.02800
C965        C  0.44537033  0.86889852  0.87806605     0.27600
C966        C  0.46697466  0.87486889  0.90621919    -0.25000
N967        N  0.52646198  0.82112331  0.88163777    -0.82300
H968        H  0.48047169  0.81233080  0.83388460     0.13400
C969        C  0.42847163  0.83928666  0.82099241     0.02800
N970        N  0.41884557  0.88638621  0.87558715    -0.80900
H971        H  0.46372426  0.89286939  0.92590433     0.18200
C972        C  0.39992465  0.83177080  0.82791945    -0.25800
C973        C  0.37892496  0.82367009  0.80015597     0.36300
C974        C  0.38637094  0.82299678  0.76434943    -0.19800
C975        C  0.41500914  0.83043416  0.75732850    -0.25000
C976        C  0.43606478  0.83885675  0.78526345     0.27600
H977        H  0.39404119  0.83152184  0.85520126     0.13400
N978        N  0.35032638  0.81508524  0.80866797    -0.82300
H979        H  0.42089134  0.82993787  0.72999975     0.18200
N980        N  0.46507117  0.84710045  0.77752173    -0.80900
H981        H  0.34094741  0.83267961  0.82333455     0.33900
H982        H  0.35282121  0.79730224  0.82480342     0.38400
H983        H  0.46714687  0.84552867  0.75004846     0.33800
H984        H  0.46775245  0.86928633  0.78607791     0.30500
H985        H  0.41859046  0.90216446  0.89704738     0.33800
H986        H  0.41897665  0.89793379  0.85258670     0.30500
H987        H  0.52899128  0.80961492  0.90469073     0.38400
H988        H  0.52677127  0.80540696  0.86011360     0.33900
C989        C  0.50700993  0.85527940  0.49215735    -0.19900
C990        C  0.48974198  0.82982086  0.48574468     0.36400
C991        C  0.46617397  0.82545929  0.50680113    -0.25800
C992        C  0.45943427  0.84608778  0.53446866     0.02800
C993        C  0.47698927  0.87133925  0.54150111     0.27600
C994        C  0.50067551  0.87559213  0.52040379    -0.25000
N995        N  0.49635945  0.80812005  0.45816227    -0.82300
H996        H  0.45308582  0.80578777  0.50158299     0.13400
C997        C  0.43453188  0.84037750  0.55649373     0.02800
N998        N  0.47034779  0.89276949  0.56961594    -0.80900
H999        H  0.51196991  0.89497636  0.02377639     0.18200
C1000       C  0.44063500  0.83090218  0.59083960    -0.25800
C1001       C  0.41791669  0.82300934  0.61144294     0.36300
C1002       C  0.38825902  0.82477194  0.59782412    -0.19800
C1003       C  0.38207395  0.83551621  0.56395461    -0.25000
C1004       C  0.40494202  0.84317811  0.54308608     0.27600
H1005       H  0.46327258  0.82899092  0.60145381     0.13400
N1006       N  0.42511564  0.81331733  0.64638487    -0.82300
H1007       H  0.35942889  0.83699898  0.55326445     0.18200
N1008       N  0.39831627  0.85335391  0.50813709    -0.80900
H1009       H  0.43675804  0.83005887  0.66137344     0.33900
H1010       H  0.43898326  0.79487043  0.64407485     0.38400
H1011       H  0.37558931  0.85402150  0.50205363     0.33800
H1012       H  0.40558687  0.87504442  0.50857570     0.30500
H1013       H  0.48498274  0.90911129  0.07146957     0.33800
H1014       H  0.44967459  0.90188728  0.56278089     0.30500
H1015       H  0.50079424  0.78818018  0.46979402     0.38400
H1016       H  0.47759492  0.80532612  0.44066279     0.33900
C1017       C  0.31168417  0.61823452  0.87621968    -0.19900
C1018       C  0.33455309  0.63893816  0.87997693     0.36400
C1019       C  0.33267546  0.66363283  0.85924819    -0.25800
C1020       C  0.30872744  0.66749433  0.83438233     0.02800
C1021       C  0.28520935  0.64770378  0.83197440     0.27600
C1022       C  0.28687847  0.62332764  0.85298902    -0.25000
N1023       N  0.36035134  0.63390992  0.90300532    -0.82300
H1024       H  0.35073295  0.67893435  0.86086184     0.13400
C1025       C  0.31007590  0.68995241  0.80789611     0.02800
N1026       N  0.26044717  0.65167610  0.80683253    -0.80900
H1027       H  0.26940154  0.60732494  0.84990873     0.18200
C1028       C  0.32010870  0.68130290  0.77445754    -0.25800
C1029       C  0.32163909  0.70158215  0.74827361     0.36300
C1030       C  0.31275856  0.73104422  0.75539585    -0.19800
C1031       C  0.30223262  0.73958772  0.78873075    -0.25000
C1032       C  0.30097117  0.71932604  0.81517236     0.27600
H1033       H  0.32685397  0.65863553  0.76869973     0.13400
N1034       N  0.33174461  0.69206027  0.71427201    -0.82300
H1035       H  0.29570648  0.76231805  0.79447789     0.18200
N1036       N  0.29092538  0.72849126  0.84945491    -0.80900
H1037       H  0.35300170  0.68337177  0.71837127     0.33900
H1038       H  0.31811651  0.67514582  0.70300755     0.38400
H1039       H  0.28541050  0.75091075  0.85068138     0.33800
H1040       H  0.27156996  0.71719616  0.85228852     0.30500
H1041       H  0.24523301  0.63490435  0.80783466     0.33800
H1042       H  0.24984029  0.67135506  0.81465225     0.30500
H1043       H  0.37096368  0.61501988  0.89268581     0.38400
H1044       H  0.37508156  0.65122907  0.90283057     0.33900
C1045       C  0.30842616  0.60185289  0.45468732    -0.19900
C1046       C  0.33164369  0.60517343  0.48125775     0.36400
C1047       C  0.33012887  0.62730022  0.50872445    -0.25800
C1048       C  0.30596628  0.64669487  0.50982720     0.02800
C1049       C  0.28246172  0.64331465  0.48336730     0.27600
C1050       C  0.28394567  0.62084386  0.45602150    -0.25000
N1051       N  0.35764330  0.58732019  0.47916887    -0.82300
H1052       H  0.34858549  0.63022123  0.52838040     0.13400
C1053       C  0.30728058  0.67216724  0.53659217     0.02800
N1054       N  0.25748632  0.66297793  0.48412390    -0.80900
H1055       H  0.26926675  0.60981658  0.94718013     0.18200
C1056       C  0.30663848  0.70060454  0.52458545    -0.25800
C1057       C  0.31061195  0.72536320  0.54845615     0.36300
C1058       C  0.31534487  0.72186511  0.58541850    -0.19800
C1059       C  0.31574977  0.69330432  0.59748925    -0.25000
C1060       C  0.31161701  0.66841722  0.57343874     0.27600
H1061       H  0.30390134  0.70360011  0.49627489     0.13400
N1062       N  0.31073716  0.75394207  0.53474397    -0.82300
H1063       H  0.31910798  0.69038088  0.62575994     0.18200
N1064       N  0.31185784  0.63937033  0.58619150    -0.80900
H1065       H  0.29056798  0.75724661  0.52043894     0.33900
H1066       H  0.32730828  0.75417136  0.51704574     0.38400
H1067       H  0.31537422  0.64038103  0.61393819     0.33800
H1068       H  0.29093750  0.63057975  0.57995520     0.30500
H1069       H  0.24230201  0.65768851  0.46261905     0.33800
H1070       H  0.24699785  0.65969977  0.50723536     0.30500
H1071       H  0.36114482  0.57695236  0.50302839     0.38400
H1072       H  0.37539923  0.60120201  0.47727909     0.33900
C1073       C  0.30018316  0.39861861  0.53047780    -0.19900
C1074       C  0.32336447  0.41009219  0.01972290     0.36400
C1075       C  0.32651905  0.43935661  0.01109970    -0.25800
C1076       C  0.30546794  0.46103847  0.01974586     0.02800
C1077       C  0.29008730  0.45100013  0.54361441     0.27600
C1078       C  0.28649036  0.42124595  0.55062354    -0.25000
N1079       N  0.34384620  0.38762848  0.00836600    -0.82300
H1080       H  0.34435613  0.44484013  0.99539153     0.13400
C1081       C  0.30570644  0.48933247  0.00217525     0.02800
N1082       N  0.27525255  0.47412572  0.56336691    -0.80900
H1083       H  0.27205461  0.41563224  0.57062010     0.18200
C1084       C  0.28221970  0.49553956  0.97759195    -0.25800
C1085       C  0.28408447  0.51800854  0.95419668     0.36300
C1086       C  0.31001865  0.53459590  0.95522855    -0.19800
C1087       C  0.33266325  0.52989074  0.98152342    -0.25000
C1088       C  0.33064977  0.50751499  0.00528232     0.27600
H1089       H  0.26309859  0.48154531  0.97506283     0.13400
N1090       N  0.26039598  0.52300657  0.92790258    -0.82300
H1091       H  0.35273267  0.54217295  0.98196833     0.18200
N1092       N  0.36356596  0.48705276  0.51162163    -0.80900
H1093       H  0.24307162  0.50867140  0.93022250     0.33900
H1094       H  0.25226780  0.54432668  0.93327417     0.38400
H1095       H  0.38175358  0.49776631  0.50347459     0.33800
H1096       H  0.36384092  0.49106657  0.53925557     0.30500
H1097       H  0.26288396  0.46537836  0.58228311     0.33800
H1098       H  0.29134924  0.48725488  0.57746351     0.30500
H1099       H  0.35415965  0.37913086  0.03120054     0.38400
H1100       H  0.36036593  0.39669945  0.99488336     0.33900
C1101       C  0.21099799  0.33544922  0.62319762    -0.19900
C1102       C  0.22218739  0.34301690  0.65847485     0.36400
C1103       C  0.20281986  0.35330540  0.68390167    -0.25800
C1104       C  0.17269433  0.35611516  0.67459939     0.02800
C1105       C  0.16154005  0.34910993  0.63922454     0.27600
C1106       C  0.18083458  0.33840099  0.61389070    -0.25000
N1107       N  0.25302932  0.33955799  0.66848066    -0.82300
H1108       H  0.21112102  0.35887153  0.71114089     0.13400
C1109       C  0.15291654  0.36647634  0.70212180     0.02800
N1110       N  0.13086491  0.35364372  0.62905032    -0.80900
H1111       H  0.17243825  0.33270741  0.58671434     0.18200
C1112       C  0.14905006  0.39677249  0.70961051    -0.25800
C1113       C  0.12810872  0.40753085  0.73270196     0.36300
C1114       C  0.11006065  0.38740542  0.74778818    -0.19800
C1115       C  0.11576225  0.35705580  0.74247830    -0.25000
C1116       C  0.13720059  0.34636569  0.71990926     0.27600
H1117       H  0.16202866  0.41216707  0.69687948     0.13400
N1118       N  0.12597795  0.43882172  0.74035888    -0.82300
H1119       H  0.10215782  0.34151922  0.75403106     0.18200
N1120       N  0.14280055  0.31523922  0.71459952    -0.80900
H1121       H  0.11731781  0.44817822  0.71721972     0.33900
H1122       H  0.11191149  0.44422238  0.76044341     0.38400
H1123       H  0.12972306  0.30352942  0.73021080     0.33800
H1124       H  0.13653191  0.30868174  0.68809773     0.30500
H1125       H  0.12643985  0.34817944  0.60182903     0.33800
H1126       H  0.11878854  0.33917001  0.64238708     0.30500
H1127       H  0.25816366  0.31708227  0.66576099     0.38400
H1128       H  0.25764244  0.34624690  0.69534727     0.33900
C1129       C  0.19415358  0.32938167  0.95452481    -0.19900
C1130       C  0.16392765  0.32737345  0.96099054     0.36400
C1131       C  0.14205663  0.33377472  0.93404439    -0.25800
C1132       C  0.14951822  0.34236907  0.90096136     0.02800
C1133       C  0.17941739  0.34385227  0.89419199     0.27600
C1134       C  0.20130510  0.33748429  0.92091427    -0.25000
N1135       N  0.15534846  0.31882329  0.99468028    -0.82300
H1136       H  0.11903996  0.33284228  0.93917662     0.13400
C1137       C  0.12624761  0.35242638  0.87452771     0.02800
N1138       N  0.18739325  0.35193816  0.86004230    -0.80900
H1139       H  0.22416214  0.33871087  0.91522413     0.18200
C1140       C  0.12580122  0.38210520  0.86692966    -0.25800
C1141       C  0.10625006  0.39261321  0.84012944     0.36300
C1142       C  0.08686368  0.37301177  0.81993879    -0.19800
C1143       C  0.08613058  0.34354356  0.82860438    -0.25000
C1144       C  0.10572297  0.33301082  0.85586617     0.27600
H1145       H  0.14121680  0.39706260  0.88167753     0.13400
N1146       N  0.10634363  0.42314148  0.83264131    -0.82300
H1147       H  0.07113311  0.32860228  0.81320422     0.18200
N1148       N  0.10538770  0.30266299  0.86403975    -0.80900
H1149       H  0.12203843  0.43464288  0.84953934     0.33900
H1150       H  0.08584351  0.43217981  0.83827868     0.38400
H1151       H  0.08898517  0.29137070  0.84801634     0.33800
H1152       H  0.12545205  0.29308439  0.85753440     0.30500
H1153       H  0.21024973  0.35213818  0.85922740     0.33800
H1154       H  0.17965177  0.33558058  0.84101294     0.30500
H1155       H  0.16117138  0.33584865  0.01377266     0.38400
H1156       H  0.13250289  0.31699289  0.99428075     0.33900
C1157       C  0.27824874  0.23158236  0.61295437    -0.19900
C1158       C  0.27952309  0.20226439  0.59808985     0.36400
C1159       C  0.28033766  0.17887055  0.62063512    -0.25800
C1160       C  0.27963670  0.18407544  0.65765900     0.02800
C1161       C  0.27986832  0.21336150  0.67264869     0.27600
C1162       C  0.27958742  0.23679428  0.65015729    -0.25000
N1163       N  0.27956983  0.19632556  0.56016883    -0.82300
H1164       H  0.28068556  0.15637443  0.60923785     0.13400
C1165       C  0.27617356  0.15880246  0.68001693     0.02800
N1166       N  0.27911844  0.21921052  0.71050100    -0.80900
H1167       H  0.27874633  0.25923296  0.66166880     0.18200
C1168       C  0.29651707  0.15419163  0.70897548    -0.25800
C1169       C  0.29243043  0.13181001  0.73207908     0.36300
C1170       C  0.26769161  0.11345821  0.72574703    -0.19800
C1171       C  0.24803772  0.11738895  0.69604209    -0.25000
C1172       C  0.25171853  0.14010145  0.67344967     0.27600
H1173       H  0.31537679  0.16843077  0.71385273     0.13400
N1174       N  0.31300557  0.12796047  0.76215720    -0.82300
H1175       H  0.22889536  0.10350464  0.69157441     0.18200
N1176       N  0.23014555  0.14493006  0.64460207    -0.80900
H1177       H  0.32983795  0.14336613  0.76316974     0.33900
H1178       H  0.32287834  0.10721108  0.75873447     0.38400
H1179       H  0.21352721  0.12928529  0.64340789     0.33800
H1180       H  0.22015715  0.16542439  0.65007241     0.30500
H1181       H  0.27941382  0.24186839  0.71722770     0.33800
H1182       H  0.25907421  0.21161090  0.71783289     0.30500
H1183       H  0.29891437  0.20493157  0.55207720     0.38400
H1184       H  0.28027717  0.17365478  0.55358240     0.33900
C1185       C  0.26872742  0.23541195  0.94963240    -0.19900
C1186       C  0.25561215  0.20772354  0.95144888     0.36400
C1187       C  0.25710043  0.18660187  0.92265689    -0.25800
C1188       C  0.27093332  0.19279967  0.89208104     0.02800
C1189       C  0.28466983  0.21999893  0.89056270     0.27600
C1190       C  0.28351515  0.24102862  0.91940103    -0.25000
N1191       N  0.24145849  0.20084467  0.98260256    -0.82300
H1192       H  0.24691413  0.16537285  0.92367626     0.13400
C1193       C  0.27049877  0.17046674  0.86179523     0.02800
N1194       N  0.29956603  0.22612593  0.85967818    -0.80900
H1195       H  0.29365936  0.26221261  0.91788897     0.18200
C1196       C  0.25197148  0.17463657  0.83108619    -0.25800
C1197       C  0.24784830  0.15186660  0.80419999     0.36300
C1198       C  0.26272591  0.12484846  0.80806752    -0.19800
C1199       C  0.28255363  0.12143455  0.83777467    -0.25000
C1200       C  0.28670057  0.14406573  0.86465573     0.27600
H1201       H  0.23960542  0.19505354  0.82884921     0.13400
N1202       N  0.22742899  0.15565042  0.77413631    -0.82300
H1203       H  0.29400804  0.10056329  0.84056708     0.18200
N1204       N  0.30654878  0.14009636  0.89540241    -0.80900
H1205       H  0.20685452  0.16089694  0.78351758     0.33900
H1206       H  0.23422728  0.17356500  0.76100907     0.38400
H1207       H  0.31657020  0.11927497  0.89354750     0.33800
H1208       H  0.32333745  0.15544554  0.89534109     0.30500
H1209       H  0.30842460  0.24726016  0.86269576     0.33800
H1210       H  0.31732431  0.21138904  0.85799682     0.30500
H1211       H  0.22183036  0.21300679  0.98299400     0.38400
H1212       H  0.23543280  0.17871062  0.98081066     0.33900
C1213       C  0.25939043  0.04471801  0.71106527    -0.19900
C1214       C  0.28882281  0.03558318  0.70762198     0.36400
C1215       C  0.29470638  0.00745009  0.69172405    -0.25800
C1216       C  0.27168824  0.98869522  0.67905288     0.02800
C1217       C  0.24252691  0.99938713  0.67803825     0.27600
C1218       C  0.23663694  0.02747307  0.69394423    -0.25000
N1219       N  0.31244850  0.05345236  0.72374734    -0.82300
H1220       H  0.31711574  0.99909044  0.69222327     0.13400
C1221       C  0.27757111  0.95661933  0.67578590     0.02800
N1222       N  0.21890833  0.98053851  0.66394327    -0.80900
H1223       H  0.21403410  0.03447220  0.69667677     0.18200
C1224       C  0.27377282  0.94072414  0.70556042    -0.25800
C1225       C  0.27926507  0.91031510  0.70494247     0.36300
C1226       C  0.28912431  0.89544510  0.67383317    -0.19800
C1227       C  0.29258557  0.91138542  0.64375590    -0.25000
C1228       C  0.28699909  0.94198422  0.64452661     0.27600
H1229       H  0.26635707  0.95222147  0.72944860     0.13400
N1230       N  0.27434400  0.89444781  0.73560236    -0.82300
H1231       H  0.30003843  0.90001741  0.61983084     0.18200
N1232       N  0.29113151  0.95826193  0.61402149    -0.80900
H1233       H  0.26742585  0.90873288  0.75631284     0.33900
H1234       H  0.25704556  0.87995397  0.72840919     0.38400
H1235       H  0.29836014  0.94426179  0.59324566     0.33800
H1236       H  0.27059680  0.96658328  0.60504833     0.30500
H1237       H  0.19866638  0.99144115  0.66591852     0.33800
H1238       H  0.22141552  0.97616304  0.63677664     0.30500
H1239       H  0.31307666  0.07196717  0.70893408     0.38400
H1240       H  0.33263361  0.04255138  0.72130240     0.33900
C1241       C  0.08496961  0.76252449  0.73589627    -0.19900
C1242       C  0.09393227  0.79072295  0.72826277     0.36400
C1243       C  0.11831765  0.79345855  0.70792470    -0.25800
C1244       C  0.13370539  0.76851042  0.69462400     0.02800
C1245       C  0.12300789  0.74025371  0.69982110     0.27600
C1246       C  0.09914026  0.73758854  0.72095799    -0.25000
N1247       N  0.07980852  0.81647086  0.74373695    -0.82300
H1248       H  0.12651976  0.81519178  0.70451270     0.13400
C1249       C  0.16309269  0.77231749  0.68029849     0.02800
N1250       N  0.13722897  0.71436262  0.68484192    -0.80900
H1251       H  0.09250160  0.71594696  0.72735722     0.18200
C1252       C  0.18749635  0.75714558  0.69541203    -0.25800
C1253       C  0.21618724  0.76301857  0.68702670     0.36300
C1254       C  0.22091917  0.78515015  0.66380894    -0.19800
C1255       C  0.19666935  0.79924258  0.64694721    -0.25000
C1256       C  0.16769455  0.79281100  0.65472089     0.27600
H1257       H  0.18434502  0.74159469  0.71523213     0.13400
N1258       N  0.24081174  0.74740155  0.70315056    -0.82300
H1259       H  0.20038956  0.81620722  0.62906040     0.18200
N1260       N  0.14300237  0.80751803  0.63749907    -0.80900
H1261       H  0.23375741  0.73196764  0.71986989     0.33900
H1262       H  0.25110030  0.73551519  0.68275724     0.38400
H1263       H  0.15007195  0.82190297  0.61953245     0.33800
H1264       H  0.13041990  0.79147738  0.62250033     0.30500
H1265       H  0.12688916  0.69534517  0.69139197     0.33800
H1266       H  0.13455610  0.71482528  0.65714175     0.30500
H1267       H  0.05817776  0.81697263  0.73252330     0.38400
H1268       H  0.08971102  0.83556728  0.73671339     0.33900
C1269       C  0.72882852  0.82433551  0.52262604    -0.19900
C1270       C  0.70687098  0.82437924  0.99337217     0.36400
C1271       C  0.67682056  0.83133504  0.99505845    -0.25800
C1272       C  0.66796359  0.83770730  0.52604611     0.02800
C1273       C  0.68462535  0.82885548  0.55648921     0.27600
C1274       C  0.71488435  0.82224109  0.55450025    -0.25000
N1275       N  0.71968275  0.82320968  0.95960958    -0.82300
H1276       H  0.66360451  0.83564316  0.97085521     0.13400
C1277       C  0.63630356  0.84626045  0.52637362     0.02800
N1278       N  0.67076461  0.82651438  0.58913660    -0.80900
H1279       H  0.72760838  0.81531647  0.57792809     0.18200
C1280       C  0.60992764  0.82342829  0.01782549    -0.25800
C1281       C  0.58163051  0.83273944  0.00525313     0.36300
C1282       C  0.57554511  0.86298418  0.00221217    -0.19800
C1283       C  0.59697099  0.88341013  0.01603122    -0.25000
C1284       C  0.62800924  0.87621314  0.52895139     0.27600
H1285       H  0.61511232  0.80008675  0.01719132     0.13400
N1286       N  0.56023240  0.81128735  0.99214517    -0.82300
H1287       H  0.59339735  0.90765729  0.51738197     0.18200
N1288       N  0.64987262  0.89822606  0.53882229    -0.80900
H1289       H  0.56913130  0.79783118  0.97197624     0.33900
H1290       H  0.55632452  0.79819842  0.01297194     0.38400
H1291       H  0.64047621  0.91932471  0.53839529     0.33800
H1292       H  0.65758459  0.89551228  0.56518302     0.30500
H1293       H  0.68599196  0.81949444  0.60898496     0.33800
H1294       H  0.66377514  0.84761038  0.59778232     0.30500
H1295       H  0.73412309  0.84085159  0.96022783     0.38400
H1296       H  0.70363314  0.82647860  0.93895625     0.33900
C1297       C  0.90188848  0.79299436  0.60359393    -0.19900
C1298       C  0.89699967  0.77707836  0.63350625     0.36400
C1299       C  0.92061409  0.77175281  0.65859587    -0.25800
C1300       C  0.94884986  0.78215663  0.65462289     0.02800
C1301       C  0.95405721  0.79717688  0.62437039     0.27600
C1302       C  0.93057314  0.80241450  0.59917242    -0.25000
N1303       N  0.86800405  0.76730475  0.63909476    -0.82300
H1304       H  0.91685248  0.76017013  0.68196414     0.13400
C1305       C  0.97242157  0.77836714  0.68326124     0.02800
N1306       N  0.98313033  0.80717169  0.61949854    -0.80900
H1307       H  0.93461135  0.81440923  0.57621874     0.18200
C1308       C  0.99093048  0.75349714  0.68154178    -0.25800
C1309       C  0.01268700  0.74873673  0.70908970     0.36300
C1310       C  0.01638783  0.76962910  0.73845170    -0.19800
C1311       C  0.99795913  0.79461540  0.73990792    -0.25000
C1312       C  0.97594183  0.79915940  0.71265282     0.27600
H1313       H  0.98792828  0.73748405  0.65902070     0.13400
N1314       N  0.03038665  0.72233211  0.70799074    -0.82300
H1315       H  0.00082452  0.81059819  0.76243824     0.18200
N1316       N  0.95678088  0.82451873  0.71493323    -0.80900
H1317       H  0.02489227  0.70916648  0.68473759     0.33900
H1318       H  0.02539244  0.71026150  0.72931019     0.38400
H1319       H  0.96188742  0.83736645  0.73855162     0.33800
H1320       H  0.96077517  0.83752891  0.69408011     0.30500
H1321       H  0.98335446  0.81753870  0.59564036     0.33800
H1322       H  0.98875237  0.82315851  0.63996750     0.30500
H1323       H  0.85495790  0.78603612  0.64407339     0.38400
H1324       H  0.86837566  0.75543464  0.66188609     0.33900
C1325       C  0.89129226  0.79772833  0.93844760    -0.19900
C1326       C  0.92112102  0.79272063  0.94989431     0.36400
C1327       C  0.94204198  0.78802804  0.92444849    -0.25800
C1328       C  0.93384991  0.78770019  0.88786471     0.02800
C1329       C  0.90408373  0.79168763  0.87630435     0.27600
C1330       C  0.88309168  0.79655180  0.90167004    -0.25000
N1331       N  0.93012697  0.79237176  0.98720513    -0.82300
H1332       H  0.96494692  0.78454923  0.93313301     0.13400
C1333       C  0.95696033  0.78346219  0.86218357     0.02800
N1334       N  0.89542869  0.79140436  0.83888173    -0.80900
H1335       H  0.86034315  0.80039460  0.89260105     0.18200
C1336       C  0.95797828  0.75733341  0.84023612    -0.25800
C1337       C  0.98148534  0.75131023  0.81877633     0.36300
C1338       C  0.00424455  0.77192417  0.81882564    -0.19800
C1339       C  0.00254576  0.79856032  0.83961406    -0.25000
C1340       C  0.97902526  0.80463387  0.86114346     0.27600
H1341       H  0.94106536  0.74100532  0.84096236     0.13400
N1342       N  0.98246280  0.72356970  0.79857346    -0.82300
H1343       H  0.02018206  0.81424343  0.83988421     0.18200
N1344       N  0.97775291  0.83187895  0.88263813    -0.80900
H1345       H  0.98305445  0.72759429  0.77172120     0.33900
H1346       H  0.00185117  0.71249252  0.80656296     0.38400
H1347       H  0.99576146  0.84497652  0.87904003     0.33800
H1348       H  0.95899467  0.84343190  0.87348854     0.30500
H1349       H  0.87271527  0.79460918  0.83475494     0.33800
H1350       H  0.90528604  0.80936075  0.82885889     0.30500
H1351       H  0.92004943  0.77444078  0.99698684     0.38400
H1352       H  0.95280534  0.78872847  0.99103423     0.33900
C1353       C  0.85109548  0.00374891  0.74304863    -0.19900
C1354       C  0.87104485  0.99502736  0.71758153     0.36400
C1355       C  0.86211021  0.97581372  0.68846840    -0.25800
C1356       C  0.83346270  0.96484753  0.68442773     0.02800
C1357       C  0.81299428  0.97429466  0.70923111     0.27600
C1358       C  0.82212564  0.99357001  0.73863539    -0.25000
N1359       N  0.90094992  0.00441316  0.72245711    -0.82300
H1360       H  0.87806296  0.96826973  0.66984634     0.13400
C1361       C  0.82684558  0.94093839  0.65651369     0.02800
N1362       N  0.78332344  0.96385188  0.70471498    -0.80900
H1363       H  0.80693558  0.00024440  0.75849745     0.18200
C1364       C  0.82165965  0.91268724  0.66698857    -0.25800
C1365       C  0.82113268  0.88807045  0.64237343     0.36300
C1366       C  0.82622780  0.89187470  0.60633195    -0.19800
C1367       C  0.82960779  0.92057740  0.59566311    -0.25000
C1368       C  0.82992120  0.94510710  0.62037337     0.27600
H1369       H  0.81942598  0.90966278  0.69489699     0.13400
N1370       N  0.81685855  0.85925381  0.65440201    -0.82300
H1371       H  0.83288966  0.92388574  0.56809145     0.18200
N1372       N  0.83426691  0.97417699  0.60920626    -0.80900
H1373       H  0.81543424  0.86027337  0.68198460     0.33900
H1374       H  0.79645207  0.85187345  0.64312418     0.38400
H1375       H  0.83639801  0.97350562  0.58176469     0.33800
H1376       H  0.81527632  0.98657505  0.61396421     0.30500
H1377       H  0.77108406  0.97287726  0.72525365     0.33800
H1378       H  0.77372419  0.97166095  0.68109081     0.30500
H1379       H  0.90569817  0.01525056  0.70006474     0.38400
H1380       H  0.91447944  0.98567025  0.72373430     0.33900
C1381       C  0.85240811  0.98484980  0.82033142    -0.19900
C1382       C  0.86326430  0.95570465  0.82135100     0.36400
C1383       C  0.84953019  0.93615621  0.84173693    -0.25800
C1384       C  0.82528486  0.94514715  0.86088420     0.02800
C1385       C  0.81322877  0.97358906  0.85771064     0.27600
C1386       C  0.82693909  0.99320350  0.83733545    -0.25000
N1387       N  0.88872486  0.94562408  0.80349933    -0.82300
H1388       H  0.85884897  0.91426249  0.84422023     0.13400
C1389       C  0.81564453  0.92593721  0.88771946     0.02800
N1390       N  0.78788592  0.98269849  0.87633883    -0.80900
H1391       H  0.81864279  0.01560688  0.83613386     0.18200
C1392       C  0.81977651  0.93560613  0.92384398    -0.25800
C1393       C  0.81724817  0.91603639  0.95055769     0.36300
C1394       C  0.81009283  0.88649968  0.94077324    -0.19800
C1395       C  0.80327868  0.87752883  0.90484944    -0.25000
C1396       C  0.80629378  0.89698247  0.87807766     0.27600
H1397       H  0.82688043  0.95794418  0.93111290     0.13400
N1398       N  0.82315365  0.92558559  0.98746106    -0.82300
H1399       H  0.79786239  0.85472443  0.89751376     0.18200
N1400       N  0.80135718  0.88716289  0.84114259    -0.80900
H1401       H  0.82831912  0.94795315  0.99016012     0.33900
H1402       H  0.80374987  0.92337006  0.00009976     0.38400
H1403       H  0.79499801  0.86512091  0.83853644     0.33800
H1404       H  0.78369126  0.89943618  0.83039170     0.30500
H1405       H  0.78197983  0.00443817  0.87149163     0.33800
H1406       H  0.77033752  0.96957337  0.86580746     0.30500
H1407       H  0.89688414  0.96204049  0.78905910     0.38400
H1408       H  0.88202104  0.92859728  0.78481394     0.33900
C1409       C  0.80479883  0.72086005  0.50295398    -0.19900
C1410       C  0.80277672  0.70283600  0.53172869     0.36400
C1411       C  0.79591882  0.67301117  0.52463160    -0.25800
C1412       C  0.79140362  0.66071284  0.48960166     0.02800
C1413       C  0.80260568  0.67416439  0.96610652     0.27600
C1414       C  0.80655494  0.70465407  0.97282973    -0.25000
N1415       N  0.80729770  0.71477952  0.56796212    -0.82300
H1416       H  0.79338515  0.65931778  0.54657949     0.13400
C1417       C  0.78110297  0.63008813  0.48423697     0.02800
N1418       N  0.80335388  0.66073960  0.93057849    -0.80900
H1419       H  0.80967984  0.71786740  0.95063712     0.18200
C1420       C  0.75166124  0.62508318  0.47224958    -0.25800
C1421       C  0.73814335  0.59862572  0.47847648     0.36300
C1422       C  0.75457038  0.57713419  0.49673500    -0.19800
C1423       C  0.78490378  0.58069186  0.50423658    -0.25000
C1424       C  0.79839702  0.60708261  0.49808791     0.27600
H1425       H  0.73855097  0.64283785  0.46127937     0.13400
N1426       N  0.70725237  0.59453174  0.46948763    -0.82300
H1427       H  0.79734318  0.56462259  0.51912842     0.18200
N1428       N  0.83183221  0.61206726  0.03085730    -0.80900
H1429       H  0.69818731  0.61263940  0.45677298     0.33900
H1430       H  0.70504970  0.57637794  0.45101396     0.38400
H1431       H  0.83951903  0.59452068  0.04562398     0.33800
H1432       H  0.84765424  0.61548923  0.01294414     0.30500
H1433       H  0.80710138  0.67654050  0.91263683     0.33800
H1434       H  0.82132558  0.64616839  0.93039902     0.30500
H1435       H  0.82929990  0.72101686  0.57216572     0.38400
H1436       H  0.80421488  0.69866934  0.58575882     0.33900
C1437       C  0.87016777  0.32050044  0.77495889    -0.19900
C1438       C  0.88603687  0.32803476  0.74611604     0.36400
C1439       C  0.91564999  0.33660249  0.75247255    -0.25800
C1440       C  0.92982603  0.33765372  0.78689740     0.02800
C1441       C  0.91423239  0.32972158  0.81551435     0.27600
C1442       C  0.88471191  0.32131217  0.80930449    -0.25000
N1443       N  0.87219722  0.32703932  0.71058651    -0.82300
H1444       H  0.92769409  0.34287028  0.73052783     0.13400
C1445       C  0.96055838  0.34843371  0.79283745     0.02800
N1446       N  0.92846919  0.33032732  0.85084064    -0.80900
H1447       H  0.87291347  0.31565989  0.83171891     0.18200
C1448       C  0.96629692  0.37420712  0.81470941    -0.25800
C1449       C  0.99406449  0.38729018  0.81739170     0.36300
C1450       C  0.01684082  0.37409492  0.79814265    -0.19800
C1451       C  0.01174228  0.34706936  0.77856674    -0.25000
C1452       C  0.98376562  0.33419003  0.77551767     0.27600
H1453       H  0.94864143  0.38507230  0.82844204     0.13400
N1454       N  0.99808631  0.41445519  0.83881549    -0.82300
H1455       H  0.02895360  0.33730145  0.76308996     0.18200
N1456       N  0.97848624  0.30738290  0.75375431    -0.80900
H1457       H  0.98511661  0.43059854  0.82659802     0.33900
H1458       H  0.01987163  0.42135718  0.84003683     0.38400
H1459       H  0.99772299  0.29993248  0.74241449     0.33800
H1460       H  0.97283826  0.29131087  0.77045926     0.30500
H1461       H  0.91393151  0.32409159  0.86904528     0.33800
H1462       H  0.94538245  0.31452628  0.85066482     0.30500
H1463       H  0.86742320  0.30502811  0.70296174     0.38400
H1464       H  0.88672954  0.33383644  0.69268974     0.33900
C1465       C  0.86209880  0.07199501  0.75719690    -0.19900
C1466       C  0.87983142  0.09639034  0.75302234     0.36400
C1467       C  0.86641777  0.12390292  0.74804585    -0.25800
C1468       C  0.83576131  0.12713482  0.74693885     0.02800
C1469       C  0.81799282  0.10216041  0.74647327     0.27600
C1470       C  0.83140992  0.07462777  0.75124032    -0.25000
N1471       N  0.91131812  0.09348221  0.75651808    -0.82300
H1472       H  0.87986501  0.14325748  0.74766014     0.13400
C1473       C  0.82303333  0.15691098  0.75236688     0.02800
N1474       N  0.78648666  0.10520545  0.74392426    -0.80900
H1475       H  0.81764873  0.05602115  0.75445325     0.18200
C1476       C  0.80687561  0.16969618  0.72432861    -0.25800
C1477       C  0.79576723  0.19856378  0.72881642     0.36300
C1478       C  0.80098393  0.21462451  0.76203230    -0.19800
C1479       C  0.81585637  0.20116539  0.79052925    -0.25000
C1480       C  0.82704438  0.17241274  0.78598183     0.27600
H1481       H  0.80343214  0.15731794  0.69883865     0.13400
N1482       N  0.77944630  0.21174328  0.69980353    -0.82300
H1483       H  0.81985434  0.21354775  0.81594371     0.18200
N1484       N  0.84300534  0.15899482  0.81509928    -0.80900
H1485       H  0.77767175  0.19704396  0.67724429     0.33900
H1486       H  0.75807536  0.21584582  0.70734993     0.38400
H1487       H  0.84436792  0.17348053  0.83787665     0.33800
H1488       H  0.83094434  0.14093816  0.82123833     0.30500
H1489       H  0.77665075  0.08462831  0.74382611     0.33800
H1490       H  0.78045657  0.11730886  0.76687032     0.30500
H1491       H  0.91748321  0.07894244  0.73564264     0.38400
H1492       H  0.92114225  0.11362459  0.75333286     0.33900
C1493       C  0.76416186  0.38471336  0.69505052    -0.19900
C1494       C  0.74899216  0.41155046  0.70264595     0.36400
C1495       C  0.74655140  0.43257068  0.67705295    -0.25800
C1496       C  0.75937471  0.42766254  0.64457588     0.02800
C1497       C  0.77579530  0.40183344  0.63758221     0.27600
C1498       C  0.77808758  0.38060813  0.66290146    -0.25000
N1499       N  0.73558176  0.41723031  0.73577030    -0.82300
H1500       H  0.73436136  0.45287035  0.68224753     0.13400
C1501       C  0.75465428  0.44970481  0.61790891     0.02800
N1502       N  0.78948945  0.39704712  0.60452060    -0.80900
H1503       H  0.79014546  0.36038357  0.65691887     0.18200
C1504       C  0.77774587  0.46817789  0.61192703    -0.25800
C1505       C  0.77285599  0.49177066  0.59010160     0.36300
C1506       C  0.74460882  0.49610606  0.57333462    -0.19800
C1507       C  0.72182239  0.47700446  0.57832389    -0.25000
C1508       C  0.72661909  0.45365670  0.60048129     0.27600
H1509       H  0.79916055  0.46500371  0.62567885     0.13400
N1510       N  0.79595401  0.51216262  0.58632339    -0.82300
H1511       H  0.70012185  0.48083607  0.56563652     0.18200
N1512       N  0.70306743  0.43433683  0.60614404    -0.80900
H1513       H  0.81539038  0.50576016  0.60033389     0.33900
H1514       H  0.78978623  0.53259092  0.59806003     0.38400
H1515       H  0.68375926  0.44043046  0.59163508     0.33800
H1516       H  0.70878500  0.41324492  0.59596477     0.30500
H1517       H  0.80090554  0.37692337  0.60357265     0.33800
H1518       H  0.77278623  0.39547088  0.58398365     0.30500
H1519       H  0.75252928  0.41924148  0.75597476     0.38400
H1520       H  0.72433545  0.43745082  0.73629047     0.33900
C1521       C  0.76331634  0.49816848  0.99304625    -0.19900
C1522       C  0.79103065  0.49619611  0.97880681     0.36400
C1523       C  0.79678456  0.47350869  0.95290126    -0.25800
C1524       C  0.77540415  0.45245973  0.94161992     0.02800
C1525       C  0.74814451  0.45357819  0.95691406     0.27600
C1526       C  0.74230102  0.47654909  0.98212644    -0.25000
N1527       N  0.81353149  0.51668914  0.99097085    -0.82300
H1528       H  0.81792228  0.47236044  0.94149708     0.13400
C1529       C  0.78083672  0.42976709  0.91286677     0.02800
N1530       N  0.72660305  0.43122662  0.94693100    -0.80900
H1531       H  0.70789525  0.50183231  0.48151824     0.18200
C1532       C  0.79272286  0.40237439  0.92160795    -0.25800
C1533       C  0.79286346  0.37848023  0.89589270     0.36300
C1534       C  0.78072883  0.38227939  0.86091958    -0.19800
C1535       C  0.77041925  0.41021519  0.85186892    -0.25000
C1536       C  0.77051316  0.43407829  0.87747736     0.27600
H1537       H  0.80053998  0.39928878  0.94893871     0.13400
N1538       N  0.80383537  0.35011942  0.90563568    -0.82300
H1539       H  0.76148924  0.41319514  0.82491987     0.18200
N1540       N  0.75964157  0.46253339  0.86791782    -0.80900
H1541       H  0.81218961  0.35119631  0.93225287     0.33900
H1542       H  0.78604357  0.33578799  0.90372432     0.38400
H1543       H  0.75336738  0.46211009  0.84066384     0.33800
H1544       H  0.74062914  0.46731720  0.88113731     0.30500
H1545       H  0.70805247  0.43482751  0.96140526     0.33800
H1546       H  0.71954391  0.43306939  0.92018192     0.30500
H1547       H  0.81992119  0.52708060  0.96895884     0.38400
H1548       H  0.83165078  0.50486968  0.00140525     0.33900
C1549       C  0.69882195  0.27993487  0.68559507    -0.19900
C1550       C  0.70379859  0.26822130  0.65078244     0.36400
C1551       C  0.67963129  0.26068570  0.62659121    -0.25800
C1552       C  0.65065486  0.26396330  0.63647765     0.02800
C1553       C  0.64560851  0.27432559  0.67153615     0.27600
C1554       C  0.66968209  0.28235651  0.69564855    -0.25000
N1555       N  0.73316809  0.26525725  0.63945453    -0.82300
H1556       H  0.68334812  0.25247449  0.59963648     0.13400
C1557       C  0.62596890  0.25731270  0.60921617     0.02800
N1558       N  0.61606035  0.27705688  0.68231346    -0.80900
H1559       H  0.66563184  0.29101230  0.72233307     0.18200
C1560       C  0.61135161  0.23043641  0.60848369    -0.25800
C1561       C  0.59064323  0.22201779  0.58043852     0.36300
C1562       C  0.58390326  0.24092614  0.55258445    -0.19800
C1563       C  0.59729152  0.26855534  0.55457156    -0.25000
C1564       C  0.61835384  0.27688533  0.58251646     0.27600
H1565       H  0.61702015  0.21535518  0.62900064     0.13400
N1566       N  0.57785586  0.19350037  0.57994540    -0.82300
H1567       H  0.59205835  0.28322598  0.53360169     0.18200
N1568       N  0.63279579  0.30474821  0.58335629    -0.80900
H1569       H  0.55513109  0.19624274  0.58043244     0.33900
H1570       H  0.58246018  0.18161360  0.55625529     0.38400
H1571       H  0.62506795  0.31643625  0.56156659     0.33800
H1572       H  0.62699509  0.31715471  0.60617020     0.30500
H1573       H  0.61608928  0.28480173  0.70904843     0.33800
H1574       H  0.60518018  0.29304083  0.66744027     0.30500
H1575       H  0.74365790  0.24842854  0.65323131     0.38400
H1576       H  0.73277630  0.25823595  0.61245313     0.33900
C1577       C  0.70758117  0.28479452  0.85470868    -0.19900
C1578       C  0.67661957  0.28728053  0.84889082     0.36400
C1579       C  0.65869412  0.27944993  0.87540758    -0.25800
C1580       C  0.67076407  0.26912862  0.90759810     0.02800
C1581       C  0.70149861  0.26623382  0.91334803     0.27600
C1582       C  0.71952273  0.27395177  0.88688089    -0.25000
N1583       N  0.66333695  0.29792481  0.81638470    -0.82300
H1584       H  0.63500694  0.28110296  0.87079840     0.13400
C1585       C  0.65061544  0.26058182  0.93427514     0.02800
N1586       N  0.71429300  0.25589166  0.94625182    -0.80900
H1587       H  0.74314447  0.27196828  0.89184293     0.18200
C1588       C  0.65150353  0.23162409  0.94498924    -0.25800
C1589       C  0.63015741  0.22152132  0.96599048     0.36300
C1590       C  0.60707911  0.24077004  0.97607913    -0.19800
C1591       C  0.60711195  0.27011539  0.96695775    -0.25000
C1592       C  0.62890106  0.28036309  0.94665122     0.27600
H1593       H  0.66818566  0.21633197  0.93569493     0.13400
N1594       N  0.63201332  0.19141135  0.97535633    -0.82300
H1595       H  0.58897452  0.28460714  0.97363095     0.18200
N1596       N  0.62848440  0.31049258  0.93740707    -0.80900
H1597       H  0.65186605  0.18879053  0.99053422     0.33900
H1598       H  0.61552184  0.18665554  0.99179956     0.38400
H1599       H  0.61093476  0.32207881  0.94833539     0.33800
H1600       H  0.64771986  0.32025752  0.94915409     0.30500
H1601       H  0.73721722  0.25490665  0.94626712     0.33800
H1602       H  0.70930114  0.27140526  0.96671313     0.30500
H1603       H  0.66726541  0.28210300  0.79580440     0.38400
H1604       H  0.64050741  0.29962954  0.81718087     0.33900
C1605       C  0.51455775  0.23306239  0.53211068    -0.19900
C1606       C  0.49023178  0.21561469  0.53775868     0.36400
C1607       C  0.46257730  0.22906139  0.54153077    -0.25800
C1608       C  0.45876733  0.25949825  0.53955327     0.02800
C1609       C  0.48233841  0.28287019  0.04798975     0.27600
C1610       C  0.51018267  0.27050016  0.04174828    -0.25000
N1611       N  0.49340129  0.18412863  0.53753297    -0.82300
H1612       H  0.44362178  0.21565028  0.54447767     0.13400
C1613       C  0.42859900  0.27207370  0.53878004     0.02800
N1614       N  0.47861939  0.31419997  0.05388130    -0.80900
H1615       H  0.52838006  0.28493333  0.03906842     0.18200
C1616       C  0.41728955  0.28302971  0.57057613    -0.25800
C1617       C  0.38813055  0.29335553  0.57103843     0.36300
C1618       C  0.36987572  0.29294162  0.53902538    -0.19800
C1619       C  0.38158553  0.28256000  0.50703995    -0.25000
C1620       C  0.41070767  0.27189594  0.50664968     0.27600
H1621       H  0.43104590  0.28314532  0.59526235     0.13400
N1622       N  0.37725950  0.30435629  0.60410800    -0.82300
H1623       H  0.36772612  0.28193359  0.48241529     0.18200
N1624       N  0.42198715  0.26014779  0.47395855    -0.80900
H1625       H  0.38606595  0.29046806  0.13366176     0.33900
H1626       H  0.37930203  0.28756254  0.62172357     0.38400
H1627       H  0.40588628  0.26107950  0.45284244     0.33800
H1628       H  0.43902992  0.27372625  0.46824614     0.30500
H1629       H  0.49883482  0.32469974  0.05396619     0.33800
H1630       H  0.46543430  0.32169151  0.03244420     0.30500
H1631       H  0.50744878  0.17935677  0.55961041     0.38400
H1632       H  0.47328284  0.17446305  0.54092408     0.33900
loop_ 
_geom_bond_atom_site_label_1 
_geom_bond_atom_site_label_2 
_geom_bond_distance 
_geom_bond_site_symmetry_2 
_ccdc_geom_bond_type 
N1            C2   1.362       .  A
N1          C821   1.357   1_554  A
N1          C746   1.444       .  S
C2          C789   1.488       .  S
C2          C819   1.387   1_554  A
C3            C4   1.371       .  A
C3          C818   1.385       .  A
C3            H6   1.082       .  S
C4            C5   1.378       .  A
C4            H7   1.082       .  S
C5          N817   1.356       .  A
C5          C774   1.475       .  S
O8           C23   1.266       .  A
O8          Al16   1.938       .  S
C9          C761   1.476       .  S
C9           O19   1.265       .  A
C9           O10   1.258       .  A
O10         Al12   1.881       .  S
O11          C13   1.267       .  A
O11         Al12   1.928       .  S
Al12         O20   1.925       .  S
Al12         O22   1.879       .  S
Al12         O21   1.782       .  S
C13         C662   1.484       .  S
C13          O26   1.259       .  A
O14          C24   1.266       .  A
O14         Al16   1.935       .  S
O15          C28   1.265       .  A
O15         Al25   1.918       .  S
Al16         O29   1.882       .  S
Al16         O26   1.884       .  S
Al16         O21   1.782       .  S
O17          C24   1.263       .  A
O17         Al25   1.905       .  S
O18          C27   1.261       .  A
O18         Al25   1.897       .  S
O19         Al25   1.926       .  S
O20          C27   1.264       .  A
O21         Al25   1.779       .  S
O22          C23   1.258       .  A
C23         C621   1.491       .  S
C24         C733   1.501       .  S
C27         C718   1.485       .  S
C28         C677   1.472       .  S
C28          O29   1.259       .  A
N30          C34   1.355       .  A
N30          C31   1.357       .  A
N30        C1521   1.445   1_554  S
C31         C606   1.473   1_554  S
C31          C32   1.386       .  A
C32          C33   1.370       .  A
C32          H35   1.083       .  S
C33          C34   1.377       .  A
C33          H36   1.082       .  S
C34         C690   1.472       .  S
N37          C41   1.352       .  A
N37          C38   1.354       .  A
N37         C537   1.439       .  S
C38         C649   1.478       .  S
C38          C39   1.385       .  A
C39          C40   1.375       .  A
C39          H42   1.082       .  S
C40          C41   1.381       .  A
C40          H43   1.082       .  S
C41         C565   1.474   1_545  S
O44          C59   1.260       .  A
O44         Al52   1.884       .  S
C45         C593   1.489       .  S
C45          O46   1.266       .  A
C45         O871   1.257   1_554  A
O46         Al48   1.930       .  S
O47          C49   1.262       .  A
O47         Al48   1.904       .  S
Al48         O56   1.902       .  S
Al48         O58   1.931       .  S
Al48         O57   1.786       .  S
C49         C481   1.487       .  S
C49          O62   1.263       .  A
O50          C60   1.264       .  A
O50        Al868   1.900       .  S
O51          C64   1.257       .  A
O51         Al61   1.897       .  S
Al52         O62   1.918       .  S
Al52        O866   1.891   1_554  S
Al52        O881   1.907   1_554  S
Al52         O57   1.780       .  S
O53          C60   1.267       .  A
O53         Al61   1.927       .  S
O54         C879   1.266       .  A
O54         Al61   1.927       .  S
O55         C861   1.256       .  A
O55         Al61   1.876       .  S
O56          C63   1.261       .  A
O57        Al877   1.785   1_554  S
O58          C59   1.266       .  A
C59         C550   1.486       .  S
C60         C509   1.487       .  S
Al61        O873   1.788       .  S
C63         C453   1.497       .  S
C63         O870   1.266   1_554  A
C64         C578   1.474       .  S
C64          O65   1.258       .  A
O65        Al868   1.898       .  S
N66          C70   1.360       .  A
N66          C67   1.359       .  A
N66         C494   1.443       .  S
C67         C425   1.481       .  S
C67          C68   1.382       .  A
C68          C69   1.373       .  A
C68          H71   1.082       .  S
C69          C70   1.380       .  A
C69          H72   1.082       .  S
C70         C522   1.480       .  S
N73          C77   1.359       .  A
N73          C74   1.359       .  A
N73         C354   1.445       .  S
C74         C397   1.479       .  S
C74          C75   1.383       .  A
C75          C76   1.368       .  A
C75          H78   1.083       .  S
C76          C77   1.379       .  A
C76          H79   1.082       .  S
C77         C382   1.471       .  S
O80          C95   1.255       .  A
O80         Al88   1.873       .  S
C81         C313   1.496       .  S
C81          O91   1.262       .  A
C81          O82   1.269       .  A
O82         Al84   1.934       .  S
O83         C901   1.256       .  A
O83         Al84   1.873       .  S
Al84         O92   1.887       .  S
Al84         O94   1.928       .  S
Al84        O909   1.782       .  S
C85         C257   1.472       .  S
C85          O98   1.266       .  A
C85         O899   1.257       .  A
O86          C96   1.256       .  A
O86         Al88   1.873       .  S
O87         C100   1.258       .  A
O87         Al97   1.882       .  S
Al88        O101   1.939       .  S
Al88         O98   1.941       .  S
Al88         O93   1.786       .  S
O89          C96   1.266       .  A
O89         Al97   1.932       .  S
O90          C99   1.261       .  A
O90        Al913   1.916       .  S
O91        Al913   1.895       .  S
O92          C99   1.257       .  A
O93         Al97   1.782       .  S
O93        Al900   1.780   1_554  S
O94         C911   1.265       .  A
C95         C802   1.494       .  S
C95         O910   1.269       .  A
C96         C285   1.470       .  S
Al97        O906   1.928   1_554  S
Al97        O907   1.892       .  S
C99         C369   1.484       .  S
C100        C341   1.486       .  S
C100        O101   1.267       .  A
N102        C106   1.358       .  A
N102        C103   1.354       .  A
N102        C326   1.442       .  S
C103        C634   1.473       .  S
C103        C104   1.381       .  A
C104        C105   1.371       .  A
C104        H107   1.082       .  S
C105        C106   1.383       .  A
C105        H108   1.082       .  S
C106        C298   1.481       .  S
N109        C113   1.356       .  A
N109        C110   1.354       .  A
N109       C1045   1.439       .  S
C110        C270   1.472       .  S
C110        C111   1.381       .  A
C111        C112   1.374       .  A
C111        H114   1.082       .  S
C112        C113   1.382       .  A
C112        H115   1.082       .  S
C113        C201   1.478       .  S
O116        C131   1.266       .  A
O116       Al124   1.919       .  S
C117        C214   1.476       .  S
C117        O127   1.257       .  A
C117        O118   1.262       .  A
O118       Al120   1.916       .  S
O119        C121   1.261       .  A
O119       Al120   1.909       .  S
Al120       O128   1.911       .  S
Al120       O130   1.918       .  S
Al120       O129   1.793       .  S
C121        C242   1.492       .  S
C121        O134   1.257       .  A
O122        C132   1.262       .  A
O122       Al124   1.917       .  S
O123        C136   1.259       .  A
O123       Al133   1.892       .  S
Al124       O137   1.911       .  S
Al124       O134   1.896       .  S
Al124       O129   1.798       .  S
O125        C132   1.260       .  A
O125       Al133   1.905       .  S
O126        C135   1.258       .  A
O126       Al133   1.896       .  S
O127       Al133   1.881       .  S
O128        C135   1.261       .  A
O129       Al133   1.794       .  S
O130        C131   1.264       .  A
C131        C186   1.495       .  S
C132        C438   1.479       .  S
C135        C158   1.482       .  S
C136        C410   1.481       .  S
C136        O137   1.260       .  A
N138        C142   1.362       .  A
N138        C139   1.367       .  A
N138        C989   1.449       .  S
C139        C466   1.493       .  S
C139        C140   1.386       .  A
C140        C141   1.366       .  A
C140        H143   1.083       .  S
C141        C142   1.377       .  A
C141        H144   1.082       .  S
C142        C145   1.478       .  S
C145        C146   1.411       .  A
C145        C150   1.401       .  A
C146        C147   1.402       .  A
C146        N151   1.438       .  S
C147        C148   1.401       .  A
C147        H152   1.084       .  S
C148        C153   1.488       .  S
C148        C149   1.415       .  A
C149        C150   1.411       .  A
C149        N154   1.437       .  S
C150        H155   1.084       .  S
N151        H171   1.045       .  S
N151        H172   1.046       .  S
C153        C156   1.400       .  A
C153        C160   1.415       .  A
N154        H169   1.045       .  S
N154        H170   1.046       .  S
C156        C157   1.402       .  A
C156        H161   1.084       .  S
C157        C158   1.414       .  A
C157        N162   1.433       .  S
C158        C159   1.402       .  A
C159        C160   1.409       .  A
C159        H163   1.084       .  S
C160        N164   1.437       .  S
N162        H165   1.046       .  S
N162        H166   1.046       .  S
N164        H167   1.046       .  S
N164        H168   1.045       .  S
C173        N954   1.451       .  S
C173        C174   1.410       .  A
C173        C178   1.407   1_556  A
C174        C175   1.408   1_556  A
C174        N179   1.429       .  S
C175        C176   1.404       .  A
C175        H180   1.084       .  S
C176        C181   1.495       .  S
C176        C177   1.412       .  A
C177        C178   1.413       .  A
C177        N182   1.437       .  S
C178        H999   1.083       .  S
N179        H199   1.045       .  S
N179        H200   1.046       .  S
C181        C184   1.402       .  A
C181        C188   1.413       .  A
N182        H198   1.045       .  S
N182       H1013   1.046       .  S
H183        C994   1.083       .  S
C184        C185   1.408       .  A
C184        H189   1.084       .  S
C185        C186   1.414       .  A
C185        N190   1.432       .  S
C186        C187   1.407       .  A
C187        C188   1.414       .  A
C187        H191   1.083       .  S
C188        N192   1.437       .  S
N190        H193   1.046       .  S
N190        H194   1.045       .  S
N192        H195   1.045       .  S
N192        H196   1.046       .  S
H197        N998   1.046       .  S
C201        C202   1.411       .  A
C201        C206   1.403       .  A
C202        C203   1.408       .  A
C202        N207   1.437       .  S
C203        C204   1.403       .  A
C203        H208   1.084       .  S
C204        C209   1.477       .  S
C204        C205   1.406       .  A
C205        C206   1.402       .  A
C205        N210   1.437       .  S
C206        H211   1.084       .  S
N207        H227   1.046       .  S
N207        H228   1.045       .  S
C209        C212   1.403       .  A
C209        C216   1.406       .  A
N210        H225   1.045       .  S
N210        H226   1.046       .  S
C212        C213   1.405       .  A
C212        H217   1.084       .  S
C213        C214   1.410       .  A
C213        N218   1.438       .  S
C214        C215   1.406       .  A
C215        C216   1.406       .  A
C215        H219   1.084       .  S
C216        N220   1.437       .  S
N218        H221   1.045       .  S
N218        H222   1.046       .  S
N220        H223   1.046       .  S
N220        H224   1.045       .  S
C229        N925   1.436       .  S
C229        C230   1.406       .  A
C229        C234   1.400       .  A
C230        C231   1.402   1_556  A
C230        N235   1.432       .  S
C231        C232   1.403       .  A
C231        H236   1.084       .  S
C232        C237   1.487       .  S
C232        C233   1.414   1_554  A
C233        C234   1.407       .  A
C233        N238   1.437   1_556  S
C234       H1055   1.083       .  S
N235        H255   1.045       .  S
N235        H256   1.045       .  S
C237        C240   1.400       .  A
C237        C244   1.411       .  A
N238        H253   1.045   1_554  S
N238        H254   1.046       .  S
H239       C1050   1.083       .  S
C240        C241   1.401       .  A
C240        H245   1.084       .  S
C241        C242   1.418       .  A
C241        N246   1.433       .  S
C242        C243   1.408       .  A
C243        C244   1.410       .  A
C243        H247   1.083       .  S
C244        N248   1.437       .  S
N246        H249   1.046       .  S
N246        H250   1.046       .  S
N248        H251   1.045       .  S
N248        H252   1.046       .  S
C257        C262   1.402       .  A
C257       C1074   1.408       .  A
C258        C259   1.397       .  A
C258       C1073   1.407       .  A
C258        N263   1.439       .  S
C259        C260   1.403       .  A
C259        H264   1.084       .  S
C260        C265   1.486       .  S
C260       C1077   1.413       .  A
C261        C262   1.410       .  A
C261       C1076   1.413       .  A
C261        N266   1.437       .  S
C262        H267   1.084       .  S
N263        H283   1.046       .  S
N263        H284   1.045       .  S
C265        C268   1.405       .  A
C265        C272   1.412       .  A
N266        H281   1.046       .  S
N266        H282   1.046       .  S
C268        C269   1.407       .  A
C268        H273   1.083       .  S
C269        C270   1.408       .  A
C269        N274   1.437       .  S
C270        C271   1.399       .  A
C271        C272   1.402       .  A
C271        H275   1.083       .  S
C272       N1092   1.438       .  S
N274        H277   1.045       .  S
N274        H278   1.045       .  S
N276       C1088   1.437       .  S
N276        H279   1.046       .  S
N276        H280   1.045       .  S
C285        C286   1.413       .  A
C285        C290   1.400       .  A
C286        C287   1.403       .  A
C286        N291   1.438       .  S
C287        C288   1.398       .  A
C287        H292   1.084       .  S
C288        C293   1.474       .  S
C288        C289   1.411       .  A
C289        C290   1.405       .  A
C289        N294   1.438       .  S
C290        H295   1.084       .  S
N291        H311   1.046       .  S
N291        H312   1.046       .  S
C293        C296   1.400       .  A
C293        C300   1.407       .  A
N294        H309   1.046       .  S
N294        H310   1.045       .  S
C296        C297   1.401       .  A
C296        H301   1.084       .  S
C297        C298   1.418       .  A
C297        N302   1.437       .  S
C298        C299   1.404       .  A
C299        C300   1.402       .  A
C299        H303   1.082       .  S
C300        N304   1.438       .  S
N302        H305   1.046       .  S
N302        H306   1.044       .  S
N304        H307   1.045       .  S
N304        H308   1.046       .  S
C313        C314   1.421       .  A
C313        C318   1.408       .  A
C314        C315   1.410       .  A
C314        N319   1.438       .  S
C315        C316   1.400       .  A
C315        H320   1.084       .  S
C316        C321   1.484       .  S
C316        C317   1.407       .  A
C317        C318   1.406       .  A
C317        N322   1.438       .  S
C318        H323   1.083       .  S
N319        H339   1.045       .  S
N319        H340   1.046       .  S
C321        C324   1.400       .  A
C321        C328   1.412       .  A
N322        H337   1.045       .  S
N322        H338   1.046       .  S
C324        C325   1.403       .  A
C324        H329   1.084       .  S
C325        C326   1.410       .  A
C325        N330   1.437       .  S
C326        C327   1.403       .  A
C327        C328   1.412       .  A
C327        H331   1.082       .  S
C328        N332   1.437       .  S
N330        H333   1.046       .  S
N330        H334   1.045       .  S
N332        H335   1.046       .  S
N332        H336   1.045       .  S
C341        C342   1.415       .  A
C341        C346   1.404       .  A
C342        C343   1.405       .  A
C342        N347   1.438       .  S
C343        C344   1.403       .  A
C343        H348   1.084       .  S
C344        C349   1.493       .  S
C344        C345   1.415       .  A
C345        C346   1.409       .  A
C345        N350   1.438       .  S
C346        H351   1.083       .  S
N347        H367   1.046       .  S
N347        H368   1.045       .  S
C349        C352   1.405       .  A
C349        C356   1.414       .  A
N350        H365   1.045       .  S
N350        H366   1.046       .  S
C352        C353   1.408       .  A
C352        H357   1.083       .  S
C353        C354   1.413       .  A
C353        N358   1.436       .  S
C354        C355   1.402       .  A
C355        C356   1.405       .  A
C355        H359   1.083       .  S
C356        N360   1.438       .  S
N358        H361   1.046       .  S
N358        H362   1.043       .  S
N360        H363   1.046       .  S
N360        H364   1.046       .  S
C369        C370   1.416       .  A
C369        C374   1.409       .  A
C370        C371   1.404       .  A
C370        N375   1.438       .  S
C371        C372   1.399       .  A
C371        H376   1.084       .  S
C372        C377   1.473       .  S
C372        C373   1.404       .  A
C373        C374   1.405       .  A
C373        N378   1.438       .  S
C374        H379   1.083       .  S
N375        H395   1.045       .  S
N375        H396   1.046       .  S
C377        C380   1.404       .  A
C377        C384   1.406       .  A
N378        H393   1.046       .  S
N378        H394   1.045       .  S
C380        C381   1.405       .  A
C380        H385   1.084       .  S
C381        C382   1.405       .  A
C381        N386   1.432       .  S
C382        C383   1.402       .  A
C383        C384   1.400       .  A
C383        H387   1.084       .  S
C384        N388   1.438       .  S
N386        H389   1.046       .  S
N386        H390   1.046       .  S
N388        H391   1.045       .  S
N388        H392   1.046       .  S
C397        C398   1.411       .  A
C397        C402   1.404       .  A
C398        C399   1.405       .  A
C398        N403   1.435       .  S
C399        C400   1.400   1_545  A
C399        H404   1.084   1_545  S
C400        C405   1.478       .  S
C400        C401   1.407       .  A
C401        C402   1.406   1_565  A
C401        N406   1.437       .  S
C402        H407   1.084       .  S
N403        H423   1.045       .  S
N403        H424   1.045       .  S
C405        C408   1.401       .  A
C405        C412   1.406       .  A
N406        H421   1.045       .  S
N406        H422   1.045       .  S
C408        C409   1.403       .  A
C408        H413   1.084       .  S
C409        C410   1.413       .  A
C409        N414   1.438       .  S
C410        C411   1.408       .  A
C411        C412   1.409       .  A
C411        H415   1.084       .  S
C412        N416   1.437       .  S
N414        H417   1.045       .  S
N414        H418   1.046       .  S
N416        H419   1.045       .  S
N416        H420   1.046       .  S
C425        C426   1.409       .  A
C425        C430   1.402       .  A
C426        C427   1.409       .  A
C426        N431   1.437       .  S
C427        C428   1.406       .  A
C427        H432   1.083       .  S
C428        C433   1.496       .  S
C428        C429   1.414       .  A
C429        C430   1.408       .  A
C429        N434   1.437       .  S
C430        H435   1.084       .  S
N431        H451   1.045       .  S
N431        H452   1.046       .  S
C433        C436   1.405       .  A
C433        C440   1.415       .  A
N434        H449   1.046       .  S
N434        H450   1.045       .  S
C436        C437   1.404       .  A
C436        H441   1.083       .  S
C437        C438   1.409       .  A
C437        N442   1.438       .  S
C438        C439   1.403       .  A
C439        C440   1.414       .  A
C439        H443   1.083       .  S
C440        N444   1.437       .  S
N442        H445   1.046       .  S
N442        H446   1.046       .  S
N444        H447   1.045       .  S
N444        H448   1.046       .  S
C453        C458   1.412       .  A
C453       C1270   1.417   1_554  A
C454        C455   1.407       .  A
C454       C1269   1.416       .  A
C454        N459   1.438       .  S
C455       C1272   1.402       .  A
C455        H460   1.084       .  S
C456        C461   1.489       .  S
C456        C457   1.409       .  A
C456       C1271   1.401   1_554  A
C457        C458   1.414       .  A
C457        N462   1.437       .  S
C458        H463   1.083       .  S
N459        H479   1.046       .  S
N459        H480   1.046       .  S
C461        C468   1.409       .  A
C461       C1280   1.404       .  A
N462        H477   1.046       .  S
N462        H478   1.044       .  S
C464        C465   1.414       .  A
C464       C1277   1.404       .  A
C464        H469   1.083       .  S
C465        C466   1.414       .  A
C465        N470   1.435       .  S
C466        C467   1.408       .  A
C467       C1284   1.408       .  A
C467       H1287   1.084       .  S
C468       C1283   1.408       .  A
C468        N472   1.438       .  S
N470        H473   1.046       .  S
N470        H474   1.045       .  S
H471       C1283   1.084       .  S
N472        H475   1.045       .  S
N472        H476   1.045       .  S
C481        C482   1.415       .  A
C481        C486   1.408       .  A
C482        C483   1.407       .  A
C482        N487   1.438       .  S
C483        C484   1.401       .  A
C483        H488   1.084       .  S
C484        C489   1.482       .  S
C484        C485   1.408       .  A
C485        C486   1.408       .  A
C485        N490   1.438       .  S
C486        H491   1.084       .  S
N487        H507   1.046       .  S
N487        H508   1.045       .  S
C489        C492   1.401       .  A
C489        C496   1.409       .  A
N490        H505   1.046       .  S
N490        H506   1.046       .  S
C492        C493   1.408   1_655  A
C492        H497   1.084       .  S
C493        C494   1.412       .  A
C493        N498   1.436       .  S
C494        C495   1.403   1_455  A
C495        C496   1.406       .  A
C495        H499   1.082   1_655  S
C496        N500   1.437       .  S
N498        H501   1.045       .  S
N498        H502   1.046       .  S
N500        H503   1.046       .  S
N500        H504   1.045       .  S
C509        C510   1.415       .  A
C509        C514   1.408       .  A
C510        C511   1.408       .  A
C510        N515   1.438       .  S
C511        C512   1.403       .  A
C511        H516   1.084       .  S
C512        C517   1.484       .  S
C512        C513   1.407       .  A
C513        C514   1.407       .  A
C513        N518   1.438       .  S
C514        H519   1.084       .  S
N515        H535   1.046       .  S
N515        H536   1.046       .  S
C517        C520   1.404       .  A
C517        C524   1.409       .  A
N518        H533   1.046       .  S
N518        H534   1.046       .  S
C520        C521   1.403       .  A
C520        H525   1.084       .  S
C521        C522   1.411   1_655  A
C521        N526   1.432       .  S
C522        C523   1.403       .  A
C523        C524   1.405   1_455  A
C523        H527   1.084       .  S
C524        N528   1.438       .  S
N526        H529   1.045       .  S
N526        H530   1.046   1_655  S
N528        H531   1.046   1_655  S
N528        H532   1.046       .  S
C537        C538   1.408       .  A
C537        C542   1.402   1_545  A
C538        C539   1.400   1_545  A
C538        N543   1.432       .  S
C539        C540   1.402       .  A
C539        H544   1.084       .  S
C540        C545   1.483       .  S
C540        C541   1.411       .  A
C541        C542   1.406       .  A
C541        N546   1.437       .  S
C542        H547   1.082       .  S
N543        H563   1.045       .  S
N543        H564   1.046       .  S
C545        C548   1.403       .  A
C545        C552   1.408       .  A
N546        H561   1.046       .  S
N546        H562   1.045       .  S
C548        C549   1.406       .  A
C548        H553   1.084       .  S
C549        C550   1.416       .  A
C549        N554   1.438       .  S
C550        C551   1.408       .  A
C551        C552   1.404       .  A
C551        H555   1.083       .  S
C552        N556   1.438       .  S
N554        H557   1.046       .  S
N554        H558   1.045       .  S
N556        H559   1.046       .  S
N556        H560   1.045       .  S
C565        C566   1.414       .  A
C565        C570   1.402       .  A
C566        C567   1.406       .  A
C566        N571   1.438       .  S
C567        C568   1.406       .  A
C567        H572   1.084       .  S
C568        C573   1.481       .  S
C568        C569   1.407       .  A
C569        C570   1.399       .  A
C569        N574   1.438       .  S
C570        H575   1.084   1_565  S
N571        H591   1.044       .  S
N571        H592   1.046       .  S
C573        C576   1.402       .  A
C573        C580   1.409       .  A
N574        H589   1.045   1_565  S
N574        H590   1.046       .  S
C576        C577   1.399       .  A
C576        H581   1.084       .  S
C577        C578   1.409       .  A
C577        N582   1.438       .  S
C578        C579   1.406       .  A
C579        C580   1.409       .  A
C579        H583   1.084       .  S
C580        N584   1.437       .  S
N582        H585   1.046       .  S
N582        H586   1.046       .  S
N584        H587   1.046       .  S
N584        H588   1.046       .  S
C593        C594   1.414       .  A
C593       C1414   1.412   1_554  A
C594        C595   1.404       .  A
C594        N599   1.438       .  S
C595        C596   1.405   1_554  A
C595        H600   1.084       .  S
C596        C601   1.486       .  S
C596       C1413   1.406       .  A
C597        C598   1.404       .  A
C597       C1412   1.403       .  A
C597        N602   1.437       .  S
C598       C1409   1.411       .  A
C598        H603   1.083       .  S
N599        H619   1.046       .  S
N599        H620   1.046       .  S
C601        C604   1.406       .  A
C601        C608   1.409   1_556  A
N602        H617   1.046       .  S
N602        H618   1.046       .  S
C604        C605   1.407       .  A
C604        H609   1.083       .  S
C605        C606   1.407       .  A
C605        N610   1.437       .  S
C606        C607   1.402   1_556  A
C607        C608   1.401       .  A
C607        H611   1.083       .  S
C608       N1428   1.438       .  S
N610        H613   1.046       .  S
N610        H614   1.046       .  S
N612       C1424   1.437       .  S
N612        H615   1.046       .  S
N612        H616   1.046       .  S
C621        C622   1.415       .  A
C621        C626   1.410       .  A
C622        C623   1.407       .  A
C622        N627   1.438       .  S
C623        C624   1.405       .  A
C623        H628   1.084       .  S
C624        C629   1.487       .  S
C624        C625   1.407       .  A
C625        C626   1.405       .  A
C625        N630   1.438       .  S
C626        H631   1.083       .  S
N627        H647   1.046       .  S
N627        H648   1.045       .  S
C629        C632   1.404       .  A
C629        C636   1.411       .  A
N630        H645   1.046       .  S
N630        H646   1.046       .  S
C632        C633   1.400       .  A
C632        H637   1.084       .  S
C633        C634   1.412   1_655  A
C633        N638   1.437       .  S
C634        C635   1.403       .  A
C635        C636   1.406   1_455  A
C635        H639   1.084       .  S
C636        N640   1.438       .  S
N638        H641   1.046       .  S
N638        H642   1.045   1_655  S
N640        H643   1.046       .  S
N640        H644   1.045       .  S
C649        C650   1.408       .  A
C649        C654   1.404       .  A
C650        C651   1.404       .  A
C650        N655   1.437       .  S
C651        C652   1.404       .  A
C651        H656   1.084       .  S
C652        C657   1.482       .  S
C652        C653   1.410       .  A
C653        C654   1.404       .  A
C653        N658   1.438       .  S
C654        H659   1.083       .  S
N655        H675   1.045       .  S
N655        H676   1.046       .  S
C657        C660   1.401       .  A
C657        C664   1.411       .  A
N658        H673   1.045       .  S
N658        H674   1.046       .  S
C660        C661   1.408       .  A
C660        H665   1.084       .  S
C661        C662   1.417       .  A
C661        N666   1.438       .  S
C662        C663   1.404       .  A
C663        C664   1.401       .  A
C663        H667   1.083       .  S
C664        N668   1.439       .  S
N666        H669   1.045       .  S
N666        H670   1.046       .  S
N668        H671   1.046       .  S
N668        H672   1.045       .  S
C677        C678   1.410       .  A
C677        C682   1.405       .  A
C678        C679   1.402       .  A
C678        N683   1.438       .  S
C679        C680   1.402       .  A
C679        H684   1.084       .  S
C680        C685   1.475       .  S
C680        C681   1.407       .  A
C681        C682   1.403       .  A
C681        N686   1.438       .  S
C682        H687   1.084       .  S
N683        H703   1.046       .  S
N683        H704   1.046       .  S
C685        C688   1.401       .  A
C685        C692   1.409       .  A
N686        H701   1.046       .  S
N686        H702   1.046       .  S
C688        C689   1.403       .  A
C688        H693   1.084       .  S
C689        C690   1.411       .  A
C689        N694   1.438       .  S
C690        C691   1.400       .  A
C691        C692   1.401       .  A
C691        H695   1.084       .  S
C692        N696   1.438       .  S
N694        H697   1.046       .  S
N694        H698   1.045       .  S
N696        H699   1.046       .  S
N696        H700   1.046       .  S
C705        N846   1.439       .  S
C705        C706   1.407       .  A
C705        C710   1.402       .  A
C706        C707   1.407       .  A
C706        N711   1.429       .  S
C707        C708   1.403       .  A
C707        H712   1.084       .  S
C708        C713   1.480       .  S
C708        C709   1.409       .  A
C709        C710   1.404       .  A
C709        N714   1.438       .  S
C710       H1531   1.083       .  S
N711        H731   1.046       .  S
N711        H732   1.046       .  S
C713        C716   1.401       .  A
C713        C720   1.408       .  A
N714        H729   1.045       .  S
N714        H730   1.045       .  S
H715       C1526   1.083       .  S
C716        C717   1.407       .  A
C716        H721   1.084       .  S
C717        C718   1.416       .  A
C717        N722   1.438       .  S
C718        C719   1.407       .  A
C719        C720   1.407       .  A
C719        H723   1.083       .  S
C720        N724   1.438       .  S
N722        H725   1.046       .  S
N722        H726   1.045       .  S
N724        H727   1.046       .  S
N724        H728   1.045       .  S
C733        C734   1.421       .  A
C733        C738   1.410       .  A
C734        C735   1.411       .  A
C734        N739   1.438       .  S
C735        C736   1.402       .  A
C735        H740   1.084       .  S
C736        C741   1.490       .  S
C736        C737   1.408       .  A
C737        C738   1.409       .  A
C737        N742   1.437       .  S
C738        H743   1.083       .  S
N739        H759   1.046       .  S
N739        H760   1.045       .  S
C741        C744   1.402       .  A
C741        C748   1.412       .  A
N742        H757   1.046       .  S
N742        H758   1.045       .  S
C744        C745   1.401       .  A
C744        H749   1.084       .  S
C745        C746   1.414       .  A
C745        N750   1.432       .  S
C746        C747   1.404       .  A
C747        C748   1.411       .  A
C747        H751   1.081       .  S
C748        N752   1.437       .  S
N750        H753   1.045       .  S
N750        H754   1.045       .  S
N752        H755   1.046       .  S
N752        H756   1.045       .  S
C761        C762   1.408       .  A
C761        C766   1.405       .  A
C762        C763   1.405       .  A
C762        N767   1.438       .  S
C763        C764   1.406       .  A
C763        H768   1.084       .  S
C764        C769   1.487       .  S
C764        C765   1.410       .  A
C765        C766   1.405       .  A
C765        N770   1.438       .  S
C766        H771   1.084       .  S
N767        H787   1.046       .  S
N767        H788   1.045       .  S
C769        C772   1.406       .  A
C769        C776   1.410       .  A
N770        H785   1.046       .  S
N770        H786   1.046       .  S
C772        C773   1.403       .  A
C772        H777   1.084       .  S
C773        C774   1.413       .  A
C773        N778   1.438       .  S
C774        C775   1.402       .  A
C775        C776   1.402       .  A
C775        H779   1.084       .  S
C776        N780   1.438       .  S
N778        H781   1.044       .  S
N778        H782   1.045       .  S
N780        H783   1.046       .  S
N780        H784   1.045       .  S
C789        C790   1.415       .  A
C789       C1610   1.405       .  A
C790        C791   1.406       .  A
C790        N795   1.438       .  S
C791        C792   1.400       .  A
C791        H796   1.084       .  S
C792        C797   1.483       .  S
C792       C1609   1.409       .  A
C793        C794   1.408       .  A
C793       C1608   1.409       .  A
C793        N798   1.438       .  S
C794       C1605   1.405       .  A
C794        H799   1.084       .  S
N795        H815   1.046       .  S
N795        H816   1.045       .  S
C797        C800   1.397       .  A
C797        C804   1.410       .  A
N798        H813   1.046       .  S
N798        H814   1.045       .  S
C800        C801   1.408       .  A
C800        H805   1.084       .  S
C801        C802   1.423       .  A
C801        N806   1.438       .  S
C802        C803   1.406       .  A
C803        C804   1.407       .  A
C803        H807   1.083   1_554  S
C804        N808   1.438   1_554  S
N806        H810   1.046       .  S
N806       H1625   1.046       .  S
N808        H811   1.045       .  S
N808        H812   1.045       .  S
H809       N1622   1.046       .  S
N817        C818   1.359       .  A
N817       C1562   1.446       .  S
C818       C1605   1.482       .  S
C819        C820   1.370       .  A
C819        H822   1.082       .  S
C820        C821   1.378       .  A
C820        H823   1.082       .  S
C821       C1590   1.477       .  S
O824        C839   1.263       .  A
O824       Al832   1.918       .  S
C825       C1577   1.492       .  S
C825        O835   1.258       .  A
C825        O826   1.258       .  A
O826       Al828   1.901       .  S
O827        C829   1.261       .  A
O827       Al828   1.897       .  S
Al828       O836   1.896       .  S
Al828       O838   1.904       .  S
Al828       O837   1.794       .  S
C829       C1478   1.470       .  S
C829        O842   1.259       .  A
O830        C840   1.264       .  A
O830       Al832   1.911       .  S
O831        C844   1.257       .  A
O831       Al841   1.892       .  S
Al832       O845   1.887       .  S
Al832       O842   1.894       .  S
Al832       O837   1.793       .  S
O833        C840   1.264       .  A
O833       Al841   1.915       .  S
O834        C843   1.264       .  A
O834       Al841   1.909       .  S
O835       Al841   1.897       .  S
O836        C843   1.261       .  A
O837       Al841   1.788       .  S
O838        C839   1.260       .  A
C839       C1437   1.494       .  S
C840       C1549   1.494       .  S
C843       C1534   1.478       .  S
C844       C1493   1.485       .  S
C844        O845   1.256       .  A
N846        C850   1.352       .  A
N846        C847   1.354       .  A
C847       C1422   1.471       .  S
C847        C848   1.385       .  A
C848        C849   1.370       .  A
C848        H851   1.083       .  S
C849        C850   1.377       .  A
C849        H852   1.082       .  S
C850       C1506   1.466       .  S
N853        C857   1.348       .  A
N853        C854   1.353       .  A
N853       C1353   1.437       .  S
C854       C1465   1.478       .  S
C854        C855   1.386       .  A
C855        C856   1.374       .  A
C855        H858   1.082       .  S
C856        C857   1.379       .  A
C856        H859   1.082       .  S
C857       C1381   1.468   1_545  S
O860        C875   1.264       .  A
O860       Al868   1.897       .  S
C861       C1409   1.484       .  S
C861        O862   1.262       .  A
O862       Al864   1.913       .  S
O863        C865   1.261       .  A
O863       Al864   1.913       .  S
Al864       O872   1.900       .  S
Al864       O874   1.918       .  S
Al864       O873   1.790       .  S
C865       C1297   1.491       .  S
C865        O878   1.260       .  A
O866        C876   1.261       .  A
O867        C880   1.257       .  A
O867       Al877   1.889       .  S
Al868       O878   1.909       .  S
Al868       O873   1.782       .  S
O869        C876   1.266       .  A
O869       Al877   1.930       .  S
O870       Al877   1.931       .  S
O871       Al877   1.877       .  S
O872        C879   1.260       .  A
O874        C875   1.265       .  A
C875       C1366   1.489       .  S
C876       C1325   1.489       .  S
C879       C1269   1.496       .  S
C880       C1394   1.467       .  S
C880        O881   1.261       .  A
N882        C886   1.360       .  A
N882        C883   1.360       .  A
N882       C1310   1.444       .  S
C883       C1241   1.482       .  S
C883        C884   1.382       .  A
C884        C885   1.373       .  A
C884        H887   1.082       .  S
C885        C886   1.380       .  A
C885        H888   1.082       .  S
C886       C1338   1.480       .  S
N889        C893   1.359       .  A
N889        C890   1.359       .  A
N889       C1170   1.443       .  S
C890       C1213   1.479       .  S
C890        C891   1.382       .  A
C891        C892   1.368       .  A
C891        H894   1.082       .  S
C892        C893   1.380       .  A
C892        H895   1.082       .  S
C893       C1198   1.474       .  S
O896        C911   1.257       .  A
O896       Al904   1.881       .  S
C897       C1129   1.500       .  S
C897        O907   1.260   1_556  A
C897        O898   1.270       .  A
O898       Al900   1.944       .  S
O899       Al900   1.880   1_554  S
Al900       O908   1.878       .  S
Al900       O910   1.945   1_556  S
C901       C1073   1.470       .  S
C901        O914   1.263       .  A
O902        C912   1.257       .  A
O902       Al904   1.881       .  S
O903        C916   1.261       .  A
O903       Al913   1.889       .  S
Al904       O917   1.932       .  S
Al904       O914   1.930       .  S
Al904       O909   1.789       .  S
O905        C912   1.262       .  A
O905       Al913   1.919       .  S
O906        C915   1.265       .  A
O908        C915   1.257       .  A
O909       Al913   1.783       .  S
C911       C1618   1.485       .  S
C912       C1101   1.470       .  S
C915       C1185   1.479       .  S
C916       C1157   1.484       .  S
C916        O917   1.267       .  A
N918        C922   1.357       .  A
N918        C919   1.357       .  A
N918       C1142   1.445       .  S
C919       C1450   1.477       .  S
C919        C920   1.384       .  A
C920        C921   1.371       .  A
C920        H923   1.083       .  S
C921        C922   1.381       .  A
C921        H924   1.082       .  S
C922       C1114   1.481       .  S
N925        C929   1.360       .  A
N925        C926   1.358       .  A
C926       C1086   1.484       .  S
C926        C927   1.383       .  A
C927        C928   1.373       .  A
C927        H930   1.082       .  S
C928        C929   1.382       .  A
C928        H931   1.082       .  S
C929       C1017   1.486       .  S
O932        C947   1.266       .  A
O932       Al940   1.921       .  S
C933       C1030   1.482       .  S
C933        O943   1.258       .  A
C933        O934   1.262       .  A
O934       Al936   1.916       .  S
O935        C937   1.261       .  A
O935       Al936   1.908       .  S
Al936       O944   1.914       .  S
Al936       O946   1.917       .  S
Al936       O945   1.791       .  S
C937       C1058   1.486       .  S
C937        O950   1.258       .  A
O938        C948   1.263       .  A
O938       Al940   1.923       .  S
O939        C952   1.257       .  A
O939       Al949   1.886       .  S
Al940       O953   1.917       .  S
Al940       O950   1.897       .  S
Al940       O945   1.801       .  S
O941        C948   1.260       .  A
O941       Al949   1.902       .  S
O942        C951   1.257       .  A
O942       Al949   1.889       .  S
O943       Al949   1.890       .  S
O944        C951   1.262       .  A
O945       Al949   1.790       .  S
O946        C947   1.265       .  A
C947       C1002   1.494       .  S
C948       C1254   1.479       .  S
C951        C974   1.486       .  S
C952       C1226   1.482       .  S
C952        O953   1.261       .  A
N954        C958   1.363       .  A
N954        C955   1.366       .  A
C955       C1282   1.491   1_556  S
C955        C956   1.386       .  A
C956        C957   1.366       .  A
C956        H959   1.083       .  S
C957        C958   1.377       .  A
C957        H960   1.082       .  S
C958        C961   1.477       .  S
C961        C962   1.411       .  A
C961        C966   1.400       .  A
C962        C963   1.403       .  A
C962        N967   1.439       .  S
C963        C964   1.402       .  A
C963        H968   1.084       .  S
C964        C969   1.490       .  S
C964        C965   1.415       .  A
C965        C966   1.410       .  A
C965        N970   1.437       .  S
C966        H971   1.084       .  S
N967        H987   1.044       .  S
N967        H988   1.046       .  S
C969        C972   1.400       .  A
C969        C976   1.416       .  A
N970        H985   1.046       .  S
N970        H986   1.046       .  S
C972        C973   1.401       .  A
C972        H977   1.084       .  S
C973        C974   1.416       .  A
C973        N978   1.433       .  S
C974        C975   1.404       .  A
C975        C976   1.410       .  A
C975        H979   1.083       .  S
C976        N980   1.437       .  S
N978        H981   1.046       .  S
N978        H982   1.046       .  S
N980        H983   1.046       .  S
N980        H984   1.046       .  S
C989        C990   1.410       .  A
C989        C994   1.406       .  A
C990        C991   1.408       .  A
C990        N995   1.430       .  S
C991        C992   1.404       .  A
C991        H996   1.084       .  S
C992        C997   1.493       .  S
C992        C993   1.411       .  A
C993        C994   1.412       .  A
C993        N998   1.437       .  S
N995       H1015   1.045       .  S
N995       H1016   1.046       .  S
C997       C1000   1.401       .  A
C997       C1004   1.413       .  A
N998       H1014   1.045       .  S
C1000      C1001   1.406       .  A
C1000      H1005   1.084       .  S
C1001      C1002   1.414       .  A
C1001      N1006   1.432       .  S
C1002      C1003   1.407       .  A
C1003      C1004   1.415       .  A
C1003      H1007   1.083       .  S
C1004      N1008   1.437       .  S
N1006      H1009   1.046       .  S
N1006      H1010   1.045       .  S
N1008      H1011   1.045       .  S
N1008      H1012   1.046       .  S
C1017      C1018   1.411       .  A
C1017      C1022   1.405       .  A
C1018      C1019   1.411       .  A
C1018      N1023   1.435       .  S
C1019      C1020   1.403       .  A
C1019      H1024   1.084       .  S
C1020      C1025   1.483       .  S
C1020      C1021   1.407       .  A
C1021      C1022   1.405       .  A
C1021      N1026   1.438       .  S
C1022      H1027   1.084       .  S
N1023      H1043   1.046       .  S
N1023      H1044   1.045       .  S
C1025      C1028   1.403       .  A
C1025      C1032   1.408       .  A
N1026      H1041   1.045       .  S
N1026      H1042   1.046       .  S
C1028      C1029   1.404       .  A
C1028      H1033   1.084       .  S
C1029      C1030   1.408       .  A
C1029      N1034   1.432       .  S
C1030      C1031   1.407       .  A
C1031      C1032   1.409       .  A
C1031      H1035   1.084       .  S
C1032      N1036   1.437       .  S
N1034      H1037   1.046       .  S
N1034      H1038   1.045       .  S
N1036      H1039   1.046       .  S
N1036      H1040   1.045       .  S
C1045      C1046   1.406       .  A
C1045      C1050   1.402       .  A
C1046      C1047   1.400       .  A
C1046      N1051   1.430       .  S
C1047      C1048   1.401       .  A
C1047      H1052   1.084       .  S
C1048      C1053   1.484       .  S
C1048      C1049   1.413       .  A
C1049      C1050   1.407       .  A
C1049      N1054   1.437       .  S
N1051      H1071   1.046       .  S
N1051      H1072   1.045       .  S
C1053      C1056   1.400       .  A
C1053      C1060   1.412       .  A
N1054      H1069   1.045       .  S
N1054      H1070   1.046       .  S
C1056      C1057   1.400       .  A
C1056      H1061   1.084       .  S
C1057      C1058   1.415       .  A
C1057      N1062   1.433       .  S
C1058      C1059   1.406       .  A
C1059      C1060   1.409       .  A
C1059      H1063   1.084       .  S
C1060      N1064   1.437       .  S
N1062      H1065   1.046       .  S
N1062      H1066   1.046       .  S
N1064      H1067   1.046       .  S
N1064      H1068   1.046       .  S
C1073      C1078   1.404       .  A
C1074      C1075   1.405       .  A
C1074      N1079   1.438       .  S
C1075      C1076   1.404       .  A
C1075      H1080   1.084   1_554  S
C1076      C1081   1.489       .  S
C1077      C1078   1.412       .  A
C1077      N1082   1.437       .  S
C1078      H1083   1.084       .  S
N1079      H1099   1.045       .  S
N1079      H1100   1.046   1_554  S
C1081      C1084   1.402   1_554  A
C1081      C1088   1.412       .  A
N1082      H1097   1.045       .  S
N1082      H1098   1.046       .  S
C1084      C1085   1.404       .  A
C1084      H1089   1.084       .  S
C1085      C1086   1.411       .  A
C1085      N1090   1.438       .  S
C1086      C1087   1.403       .  A
C1087      C1088   1.411   1_556  A
C1087      H1091   1.079       .  S
N1090      H1093   1.046       .  S
N1090      H1094   1.045       .  S
N1092      H1095   1.045       .  S
N1092      H1096   1.046       .  S
C1101      C1102   1.412       .  A
C1101      C1106   1.401       .  A
C1102      C1103   1.404       .  A
C1102      N1107   1.438       .  S
C1103      C1104   1.399       .  A
C1103      H1108   1.084       .  S
C1104      C1109   1.474       .  S
C1104      C1105   1.411       .  A
C1105      C1106   1.404       .  A
C1105      N1110   1.438       .  S
C1106      H1111   1.084       .  S
N1107      H1127   1.046       .  S
N1107      H1128   1.046       .  S
C1109      C1112   1.400       .  A
C1109      C1116   1.407       .  A
N1110      H1125   1.046       .  S
N1110      H1126   1.044       .  S
C1112      C1113   1.400       .  A
C1112      H1117   1.084       .  S
C1113      C1114   1.417       .  A
C1113      N1118   1.437       .  S
C1114      C1115   1.405       .  A
C1115      C1116   1.403       .  A
C1115      H1119   1.083       .  S
C1116      N1120   1.439       .  S
N1118      H1121   1.046       .  S
N1118      H1122   1.043       .  S
N1120      H1123   1.046       .  S
N1120      H1124   1.045       .  S
C1129      C1130   1.423       .  A
C1129      C1134   1.407       .  A
C1130      C1131   1.412       .  A
C1130      N1135   1.438       .  S
C1131      C1132   1.401       .  A
C1131      H1136   1.084       .  S
C1132      C1137   1.490       .  S
C1132      C1133   1.410       .  A
C1133      C1134   1.407       .  A
C1133      N1138   1.438       .  S
C1134      H1139   1.083       .  S
N1135      H1155   1.045   1_556  S
N1135      H1156   1.046       .  S
C1137      C1140   1.400       .  A
C1137      C1144   1.414       .  A
N1138      H1153   1.045       .  S
N1138      H1154   1.046       .  S
C1140      C1141   1.402       .  A
C1140      H1145   1.084       .  S
C1141      C1142   1.412       .  A
C1141      N1146   1.437       .  S
C1142      C1143   1.404       .  A
C1143      C1144   1.415       .  A
C1143      H1147   1.083       .  S
C1144      N1148   1.437       .  S
N1146      H1149   1.046       .  S
N1146      H1150   1.045       .  S
N1148      H1151   1.046       .  S
N1148      H1152   1.045       .  S
C1157      C1158   1.414       .  A
C1157      C1162   1.405       .  A
C1158      C1159   1.406       .  A
C1158      N1163   1.438       .  S
C1159      C1160   1.404       .  A
C1159      H1164   1.084       .  S
C1160      C1165   1.490       .  S
C1160      C1161   1.412       .  A
C1161      C1162   1.407       .  A
C1161      N1166   1.438       .  S
C1162      H1167   1.084       .  S
N1163      H1183   1.046       .  S
N1163      H1184   1.045       .  S
C1165      C1168   1.405       .  A
C1165      C1172   1.412       .  A
N1166      H1181   1.045       .  S
N1166      H1182   1.046       .  S
C1168      C1169   1.409       .  A
C1168      H1173   1.083       .  S
C1169      C1170   1.412       .  A
C1169      N1174   1.437       .  S
C1170      C1171   1.402       .  A
C1171      C1172   1.404       .  A
C1171      H1175   1.083       .  S
C1172      N1176   1.438       .  S
N1174      H1177   1.046       .  S
N1174      H1178   1.043       .  S
N1176      H1179   1.046       .  S
N1176      H1180   1.046       .  S
C1185      C1186   1.413       .  A
C1185      C1190   1.408       .  A
C1186      C1187   1.406       .  A
C1186      N1191   1.438       .  S
C1187      C1188   1.403       .  A
C1187      H1192   1.084       .  S
C1188      C1193   1.476       .  S
C1188      C1189   1.404       .  A
C1189      C1190   1.403       .  A
C1189      N1194   1.437       .  S
C1190      H1195   1.084       .  S
N1191      H1211   1.045       .  S
N1191      H1212   1.046       .  S
C1193      C1196   1.405       .  A
C1193      C1200   1.406       .  A
N1194      H1209   1.046       .  S
N1194      H1210   1.045       .  S
C1196      C1197   1.405       .  A
C1196      H1201   1.084       .  S
C1197      C1198   1.406       .  A
C1197      N1202   1.432       .  S
C1198      C1199   1.403       .  A
C1199      C1200   1.401       .  A
C1199      H1203   1.084       .  S
C1200      N1204   1.437       .  S
N1202      H1205   1.045       .  S
N1202      H1206   1.046       .  S
N1204      H1207   1.045       .  S
N1204      H1208   1.046       .  S
C1213      C1214   1.411       .  A
C1213      C1218   1.404       .  A
C1214      C1215   1.407       .  A
C1214      N1219   1.435       .  S
C1215      C1216   1.400   1_545  A
C1215      H1220   1.084   1_545  S
C1216      C1221   1.479       .  S
C1216      C1217   1.407       .  A
C1217      C1218   1.405   1_565  A
C1217      N1222   1.437       .  S
C1218      H1223   1.084       .  S
N1219      H1239   1.045       .  S
N1219      H1240   1.045       .  S
C1221      C1224   1.400       .  A
C1221      C1228   1.406       .  A
N1222      H1237   1.046       .  S
N1222      H1238   1.045       .  S
C1224      C1225   1.401       .  A
C1224      H1229   1.084       .  S
C1225      C1226   1.413       .  A
C1225      N1230   1.439       .  S
C1226      C1227   1.408       .  A
C1227      C1228   1.410       .  A
C1227      H1231   1.084       .  S
C1228      N1232   1.437       .  S
N1230      H1233   1.046       .  S
N1230      H1234   1.046       .  S
N1232      H1235   1.045       .  S
N1232      H1236   1.046       .  S
C1241      C1242   1.409       .  A
C1241      C1246   1.402       .  A
C1242      C1243   1.409       .  A
C1242      N1247   1.437       .  S
C1243      C1244   1.407       .  A
C1243      H1248   1.083       .  S
C1244      C1249   1.499       .  S
C1244      C1245   1.415       .  A
C1245      C1246   1.408       .  A
C1245      N1250   1.437       .  S
C1246      H1251   1.084       .  S
N1247      H1267   1.045       .  S
N1247      H1268   1.045       .  S
C1249      C1252   1.405       .  A
C1249      C1256   1.416       .  A
N1250      H1265   1.046       .  S
N1250      H1266   1.045       .  S
C1252      C1253   1.403       .  A
C1252      H1257   1.083       .  S
C1253      C1254   1.409       .  A
C1253      N1258   1.438       .  S
C1254      C1255   1.402       .  A
C1255      C1256   1.415       .  A
C1255      H1259   1.083       .  S
C1256      N1260   1.437       .  S
N1258      H1261   1.046       .  S
N1258      H1262   1.045       .  S
N1260      H1263   1.045       .  S
N1260      H1264   1.046       .  S
C1269      C1274   1.411       .  A
C1270      C1271   1.406       .  A
C1270      N1275   1.438       .  S
C1271      H1276   1.084       .  S
C1272      C1277   1.490       .  S
C1272      C1273   1.408       .  A
C1273      C1274   1.414       .  A
C1273      N1278   1.437       .  S
C1274      H1279   1.083       .  S
N1275      H1295   1.046       .  S
N1275      H1296   1.046       .  S
C1277      C1284   1.408       .  A
N1278      H1293   1.046       .  S
N1278      H1294   1.045       .  S
C1280      C1281   1.410       .  A
C1280      H1285   1.084       .  S
C1281      C1282   1.411       .  A
C1281      N1286   1.431   1_554  S
C1282      C1283   1.408       .  A
C1284      N1288   1.438       .  S
N1286      H1289   1.045       .  S
N1286      H1290   1.046   1_556  S
N1288      H1291   1.046       .  S
N1288      H1292   1.045       .  S
C1297      C1298   1.416       .  A
C1297      C1302   1.409       .  A
C1298      C1299   1.410       .  A
C1298      N1303   1.437       .  S
C1299      C1300   1.402       .  A
C1299      H1304   1.084       .  S
C1300      C1305   1.484       .  S
C1300      C1301   1.407       .  A
C1301      C1302   1.407       .  A
C1301      N1306   1.438       .  S
C1302      H1307   1.084       .  S
N1303      H1323   1.046       .  S
N1303      H1324   1.046       .  S
C1305      C1308   1.401       .  A
C1305      C1312   1.410       .  A
N1306      H1321   1.046       .  S
N1306      H1322   1.045       .  S
C1308      C1309   1.408   1_655  A
C1308      H1313   1.084       .  S
C1309      C1310   1.412       .  A
C1309      N1314   1.436       .  S
C1310      C1311   1.403   1_455  A
C1311      C1312   1.407       .  A
C1311      H1315   1.083   1_655  S
C1312      N1316   1.437       .  S
N1314      H1317   1.045       .  S
N1314      H1318   1.046       .  S
N1316      H1319   1.046       .  S
N1316      H1320   1.045       .  S
C1325      C1326   1.416       .  A
C1325      C1330   1.408       .  A
C1326      C1327   1.407       .  A
C1326      N1331   1.438       .  S
C1327      C1328   1.403       .  A
C1327      H1332   1.084       .  S
C1328      C1333   1.485       .  S
C1328      C1329   1.408       .  A
C1329      C1330   1.408       .  A
C1329      N1334   1.437       .  S
C1330      H1335   1.083       .  S
N1331      H1351   1.046       .  S
N1331      H1352   1.046       .  S
C1333      C1336   1.404       .  A
C1333      C1340   1.410       .  A
N1334      H1349   1.045       .  S
N1334      H1350   1.046       .  S
C1336      C1337   1.403       .  A
C1336      H1341   1.084       .  S
C1337      C1338   1.411   1_655  A
C1337      N1342   1.432       .  S
C1338      C1339   1.403       .  A
C1339      C1340   1.406   1_455  A
C1339      H1343   1.084       .  S
C1340      N1344   1.438       .  S
N1342      H1345   1.044       .  S
N1342      H1346   1.046   1_655  S
N1344      H1347   1.046       .  S
N1344      H1348   1.046       .  S
C1353      C1354   1.405   1_545  A
C1353      C1358   1.402   1_545  A
C1354      C1355   1.398       .  A
C1354      N1359   1.432   1_565  S
C1355      C1356   1.401       .  A
C1355      H1360   1.084       .  S
C1356      C1361   1.481       .  S
C1356      C1357   1.412       .  A
C1357      C1358   1.409       .  A
C1357      N1362   1.437       .  S
C1358      H1363   1.083   1_565  S
N1359      H1379   1.045       .  S
N1359      H1380   1.046   1_545  S
C1361      C1364   1.400       .  A
C1361      C1368   1.407       .  A
N1362      H1377   1.046       .  S
N1362      H1378   1.046       .  S
C1364      C1365   1.405       .  A
C1364      H1369   1.084       .  S
C1365      C1366   1.419       .  A
C1365      N1370   1.438       .  S
C1366      C1367   1.408       .  A
C1367      C1368   1.405       .  A
C1367      H1371   1.083       .  S
C1368      N1372   1.437       .  S
N1370      H1373   1.046       .  S
N1370      H1374   1.046       .  S
N1372      H1375   1.046       .  S
N1372      H1376   1.046       .  S
C1381      C1382   1.410       .  A
C1381      C1386   1.403       .  A
C1382      C1383   1.400       .  A
C1382      N1387   1.438       .  S
C1383      C1384   1.405       .  A
C1383      H1388   1.084       .  S
C1384      C1389   1.478       .  S
C1384      C1385   1.407       .  A
C1385      C1386   1.402       .  A
C1385      N1390   1.437       .  S
C1386      H1391   1.084   1_565  S
N1387      H1407   1.044       .  S
N1387      H1408   1.046       .  S
C1389      C1392   1.404       .  A
C1389      C1396   1.408       .  A
N1390      H1405   1.046   1_565  S
N1390      H1406   1.045       .  S
C1392      C1393   1.403       .  A
C1392      H1397   1.084       .  S
C1393      C1394   1.407       .  A
C1393      N1398   1.438       .  S
C1394      C1395   1.403       .  A
C1395      C1396   1.404       .  A
C1395      H1399   1.084       .  S
C1396      N1400   1.437       .  S
N1398      H1401   1.046       .  S
N1398      H1402   1.046   1_556  S
N1400      H1403   1.046       .  S
N1400      H1404   1.045       .  S
C1409      C1410   1.414       .  A
C1410      C1411   1.402       .  A
C1410      N1415   1.438       .  S
C1411      C1412   1.402       .  A
C1411      H1416   1.084       .  S
C1412      C1417   1.475       .  S
C1413      C1414   1.406       .  A
C1413      N1418   1.438       .  S
C1414      H1419   1.083       .  S
N1415      H1435   1.046       .  S
N1415      H1436   1.046       .  S
C1417      C1420   1.402       .  A
C1417      C1424   1.406       .  A
N1418      H1433   1.046       .  S
N1418      H1434   1.046       .  S
C1420      C1421   1.404       .  A
C1420      H1425   1.084       .  S
C1421      C1422   1.408       .  A
C1421      N1426   1.437       .  S
C1422      C1423   1.402       .  A
C1423      C1424   1.400       .  A
C1423      H1427   1.081       .  S
N1426      H1429   1.046       .  S
N1426      H1430   1.045       .  S
N1428      H1431   1.046       .  S
N1428      H1432   1.045       .  S
C1437      C1438   1.415       .  A
C1437      C1442   1.410       .  A
C1438      C1439   1.411       .  A
C1438      N1443   1.437       .  S
C1439      C1440   1.406       .  A
C1439      H1444   1.084       .  S
C1440      C1445   1.490       .  S
C1440      C1441   1.407       .  A
C1441      C1442   1.405       .  A
C1441      N1446   1.438       .  S
C1442      H1447   1.083       .  S
N1443      H1463   1.046       .  S
N1443      H1464   1.046       .  S
C1445      C1448   1.405       .  A
C1445      C1452   1.410       .  A
N1446      H1461   1.045       .  S
N1446      H1462   1.046       .  S
C1448      C1449   1.403       .  A
C1448      H1453   1.084       .  S
C1449      C1450   1.414   1_655  A
C1449      N1454   1.437       .  S
C1450      C1451   1.405       .  A
C1451      C1452   1.407   1_455  A
C1451      H1455   1.084       .  S
C1452      N1456   1.437       .  S
N1454      H1457   1.046       .  S
N1454      H1458   1.044   1_655  S
N1456      H1459   1.046       .  S
N1456      H1460   1.045       .  S
C1465      C1466   1.409       .  A
C1465      C1470   1.406       .  A
C1466      C1467   1.402       .  A
C1466      N1471   1.437       .  S
C1467      C1468   1.401       .  A
C1467      H1472   1.084       .  S
C1468      C1473   1.473       .  S
C1468      C1469   1.406       .  A
C1469      C1470   1.402       .  A
C1469      N1474   1.438       .  S
C1470      H1475   1.082       .  S
N1471      H1491   1.045       .  S
N1471      H1492   1.046       .  S
C1473      C1476   1.398       .  A
C1473      C1480   1.410       .  A
N1474      H1489   1.045       .  S
N1474      H1490   1.046       .  S
C1476      C1477   1.404       .  A
C1476      H1481   1.084       .  S
C1477      C1478   1.414       .  A
C1477      N1482   1.438       .  S
C1478      C1479   1.400       .  A
C1479      C1480   1.401       .  A
C1479      H1483   1.084       .  S
C1480      N1484   1.438       .  S
N1482      H1485   1.045       .  S
N1482      H1486   1.046       .  S
N1484      H1487   1.046       .  S
N1484      H1488   1.045       .  S
C1493      C1494   1.416       .  A
C1493      C1498   1.410       .  A
C1494      C1495   1.403       .  A
C1494      N1499   1.438       .  S
C1495      C1496   1.399       .  A
C1495      H1500   1.084       .  S
C1496      C1501   1.471       .  S
C1496      C1497   1.403       .  A
C1497      C1498   1.402       .  A
C1497      N1502   1.438       .  S
C1498      H1503   1.083       .  S
N1499      H1519   1.046       .  S
N1499      H1520   1.046       .  S
C1501      C1504   1.400       .  A
C1501      C1508   1.409       .  A
N1502      H1517   1.046       .  S
N1502      H1518   1.046       .  S
C1504      C1505   1.403       .  A
C1504      H1509   1.084       .  S
C1505      C1506   1.410       .  A
C1505      N1510   1.438       .  S
C1506      C1507   1.398       .  A
C1507      C1508   1.401       .  A
C1507      H1511   1.084       .  S
C1508      N1512   1.437       .  S
N1510      H1513   1.046       .  S
N1510      H1514   1.046       .  S
N1512      H1515   1.046       .  S
N1512      H1516   1.046       .  S
C1521      C1522   1.409       .  A
C1521      C1526   1.406       .  A
C1522      C1523   1.408       .  A
C1522      N1527   1.428       .  S
C1523      C1524   1.402       .  A
C1523      H1528   1.084       .  S
C1524      C1529   1.478       .  S
C1524      C1525   1.408       .  A
C1525      C1526   1.401       .  A
C1525      N1530   1.439       .  S
N1527      H1547   1.046       .  S
N1527      H1548   1.045   1_556  S
C1529      C1532   1.401       .  A
C1529      C1536   1.408       .  A
N1530      H1545   1.045       .  S
N1530      H1546   1.045       .  S
C1532      C1533   1.408       .  A
C1532      H1537   1.084       .  S
C1533      C1534   1.414       .  A
C1533      N1538   1.438       .  S
C1534      C1535   1.404       .  A
C1535      C1536   1.404       .  A
C1535      H1539   1.084       .  S
C1536      N1540   1.438       .  S
N1538      H1541   1.046       .  S
N1538      H1542   1.045       .  S
N1540      H1543   1.046       .  S
N1540      H1544   1.044       .  S
C1549      C1550   1.416       .  A
C1549      C1554   1.409       .  A
C1550      C1551   1.410       .  A
C1550      N1555   1.437       .  S
C1551      C1552   1.402       .  A
C1551      H1556   1.084       .  S
C1552      C1557   1.489       .  S
C1552      C1553   1.408       .  A
C1553      C1554   1.410       .  A
C1553      N1558   1.437       .  S
C1554      H1559   1.084       .  S
N1555      H1575   1.045       .  S
N1555      H1576   1.046       .  S
C1557      C1560   1.401       .  A
C1557      C1564   1.411       .  A
N1558      H1573   1.046       .  S
N1558      H1574   1.045       .  S
C1560      C1561   1.403       .  A
C1560      H1565   1.084       .  S
C1561      C1562   1.417       .  A
C1561      N1566   1.431       .  S
C1562      C1563   1.403       .  A
C1563      C1564   1.410       .  A
C1563      H1567   1.081       .  S
C1564      N1568   1.437       .  S
N1566      H1569   1.043       .  S
N1566      H1570   1.046       .  S
N1568      H1571   1.046       .  S
N1568      H1572   1.045       .  S
C1577      C1578   1.417       .  A
C1577      C1582   1.410       .  A
C1578      C1579   1.406       .  A
C1578      N1583   1.438       .  S
C1579      C1580   1.404       .  A
C1579      H1584   1.084       .  S
C1580      C1585   1.487       .  S
C1580      C1581   1.408       .  A
C1581      C1582   1.406       .  A
C1581      N1586   1.438       .  S
C1582      H1587   1.083       .  S
N1583      H1603   1.046       .  S
N1583      H1604   1.045       .  S
C1585      C1588   1.404       .  A
C1585      C1592   1.411       .  A
N1586      H1601   1.046       .  S
N1586      H1602   1.045       .  S
C1588      C1589   1.403       .  A
C1588      H1593   1.084       .  S
C1589      C1590   1.415       .  A
C1589      N1594   1.438       .  S
C1590      C1591   1.402       .  A
C1591      C1592   1.404       .  A
C1591      H1595   1.083       .  S
C1592      N1596   1.438       .  S
N1594      H1597   1.045       .  S
N1594      H1598   1.044       .  S
N1596      H1599   1.046       .  S
N1596      H1600   1.046       .  S
C1605      C1606   1.413       .  A
C1606      C1607   1.405       .  A
C1606      N1611   1.438       .  S
C1607      C1608   1.400       .  A
C1607      H1612   1.084       .  S
C1608      C1613   1.480       .  S
C1609      C1610   1.410       .  A
C1609      N1614   1.437       .  S
C1610      H1615   1.082       .  S
N1611      H1631   1.045       .  S
N1611      H1632   1.045       .  S
C1613      C1616   1.398       .  A
C1613      C1620   1.410       .  A
N1614      H1629   1.046       .  S
N1614      H1630   1.045       .  S
C1616      C1617   1.404       .  A
C1616      H1621   1.084       .  S
C1617      C1618   1.415       .  A
C1617      N1622   1.432       .  S
C1618      C1619   1.405       .  A
C1619      C1620   1.407       .  A
C1619      H1623   1.084       .  S
C1620      N1624   1.438       .  S
N1622      H1626   1.045       .  S
N1624      H1627   1.046       .  S
N1624      H1628   1.045       .  S
