geometry optimzed in LAMMPS
_audit_creation_date              2020-11-30 
_audit_creation_method            'lammps2cif' 
_symmetry_space_group_name_H-M    'P1' 
_symmetry_Int_Tables_number       1 
_symmetry_cell_setting            triclinic 
loop_ 
_symmetry_equiv_pos_as_xyz 
  x,y,z 
_cell_length_a                    34.13886486 
_cell_length_b                    34.52246704609089 
_cell_length_c                    55.132711949279 
_cell_angle_alpha                 91.95444548128923 
_cell_angle_beta                  88.40954603297025 
_cell_angle_gamma                 125.17745681164861 
loop_ 
_atom_site_label 
_atom_site_type_symbol 
_atom_site_fract_x 
_atom_site_fract_y 
_atom_site_fract_z 
_atom_site_charge 
C1          C  0.04454061  0.43333737  0.91058125     0.86200
C2          C  0.09182557  0.46894285  0.92433401    -0.54000
C3          C  0.12366402  0.45594443  0.92528408     0.09100
C4          C  0.09663855  0.40127650  0.91364465     0.20100
C5          C  0.06291555  0.42710777  0.88702315    -0.54700
C6          C  0.08627068  0.40773702  0.88739661     0.09200
C7          C  0.02407501  0.39055121  0.92587693    -0.54300
C8          C  0.04308022  0.36633737  0.92559153     0.09800
H9          H  0.09038878  0.48874102  0.93917717     0.14300
H10         H  0.11753410  0.38630964  0.91361265     0.00100
H11         H  0.05916791  0.43975978  0.87003040     0.14600
H12         H  0.01632565  0.39684034  0.94373750     0.14400
C13         C  0.31153063  0.42674194  0.90427742     0.86200
C14         C  0.29415536  0.38317077  0.91857764    -0.54000
C15         C  0.24808561  0.35923813  0.92746815     0.09100
C16         C  0.22595328  0.39052678  0.92126968     0.20100
C17         C  0.27325767  0.40741686  0.88533658    -0.54700
C18         C  0.23083924  0.39618153  0.89302086     0.09200
C19         C  0.30727560  0.45915325  0.92256441    -0.54300
C20         C  0.26278816  0.44567203  0.92990018     0.09800
H21         H  0.31583681  0.36986573  0.91970493     0.14300
H22         H  0.18856332  0.37277900  0.92780635     0.00100
H23         H  0.28163829  0.41006551  0.86595118     0.14600
H24         H  0.33157118  0.47047186  0.93742093     0.14400
C25         C  0.06418562  0.16557756  0.90669397     0.86200
C26         C  0.02886482  0.17523144  0.91804378    -0.54000
C27         C  0.04701639  0.22224423  0.92329239     0.09100
C28         C  0.10421667  0.25585445  0.91308212     0.20100
C29         C  0.07770722  0.19212147  0.88391222    -0.54700
C30         C  0.09892100  0.23807873  0.88598846     0.09200
C31         C  0.10809266  0.19122142  0.92262400    -0.54300
C32         C  0.13654106  0.23956119  0.92371642     0.09800
H33         H  0.99103711  0.14819439  0.91659466     0.14300
H34         H  0.12248844  0.29446419  0.91516831     0.00100
H35         H  0.06798993  0.17457550  0.86615841     0.14600
H36         H  0.11844843  0.16964223  0.92852446     0.14400
O37         O  0.16116818  0.43276434  0.72918810    -0.82100
C38         C  0.11933583  0.28492226  0.78643516     0.97300
O39         O  0.09706213  0.30241999  0.78090117    -0.71200
O40         O  0.08970255  0.37019942  0.77111715    -0.74800
Al41       Al  0.10387610  0.33188250  0.75144096     1.49000
C42         C  0.11792487  0.40404047  0.78550259     0.92500
O43         O  0.23895478  0.44344036  0.78200637    -0.81000
O44         O  0.25797381  0.39627137  0.74175688    -0.74600
Al45       Al  0.19773076  0.43352659  0.75529735     1.90100
O46         O  0.21791874  0.37176887  0.78932597    -0.73600
O47         O  0.18124463  0.31814310  0.72569736    -0.73500
O48         O  0.15068142  0.28851816  0.77220675    -0.79100
O49         O  0.10445115  0.28507447  0.73180856    -0.77300
O50         O  0.16718843  0.37056743  0.75461875    -1.13500
O51         O  0.10763887  0.35757615  0.72103928    -0.72700
C52         C  0.13756497  0.39903462  0.71381737     0.98000
C53         C  0.22852046  0.41162377  0.79713295     0.94400
Al54       Al  0.20024094  0.34579307  0.75711103     1.55600
O55         O  0.16063099  0.43251597  0.77970841    -0.77300
C56         C  0.13852585  0.29258076  0.71816538     0.98600
C57         C  0.25824906  0.42170732  0.72577817     0.93500
O58         O  0.23871815  0.44238823  0.73043522    -0.82600
C59         C  0.21172300  0.04484523  0.93516355     0.02000
C60         C  0.17949891  0.49131187  0.93262443     0.02000
C61         C  0.20167899  0.46618867  0.93363809    -0.18500
C62         C  0.25164327  0.48505444  0.93433797     0.02000
C63         C  0.28349376  0.03788153  0.93611072     0.02000
C64         C  0.26170908  0.06347319  0.93523754    -0.18500
H65         H  0.28551726  0.10120498  0.93436072     0.04000
H66         H  0.17815449  0.42851515  0.93430358     0.04000
C67         C  0.15053430  0.10571233  0.96299388     0.86200
C68         C  0.15634576  0.07339759  0.94498035    -0.54000
C69         C  0.20191500  0.08567923  0.94045803     0.09100
C70         C  0.23967459  0.14104829  0.95075044     0.20100
C71         C  0.18251085  0.11547046  0.98335312    -0.54700
C72         C  0.22834115  0.13458578  0.97843962     0.09200
C73         C  0.17551114  0.15260048  0.95098109    -0.54300
C74         C  0.22200824  0.17483965  0.94363969     0.09800
H75         H  0.13282459  0.05761741  0.92975188     0.14300
H76         H  0.27790866  0.15739490  0.94652835     0.00100
H77         H  0.16975111  0.10924186  0.00211415     0.14600
H78         H  0.16089219  0.17219883  0.95283072     0.14400
C79         C  0.41585185  0.36005619  0.96450311     0.86200
C80         C  0.36698593  0.34007274  0.95361966    -0.54000
C81         C  0.33457448  0.29080912  0.95282646     0.09100
C82         C  0.36348979  0.26759285  0.96194001     0.20100
C83         C  0.40249146  0.33564402  0.98801578    -0.54700
C84         C  0.37814734  0.28920750  0.98823648     0.09200
C85         C  0.43425103  0.33920421  0.94754903    -0.54300
C86         C  0.41667776  0.29359394  0.94804778     0.09800
H87         H  0.35942699  0.36383476  0.94687069     0.14300
H88         H  0.34172284  0.22843397  0.96174865     0.00100
H89         H  0.41017112  0.35529098  0.00483996     0.14600
H90         H  0.43956381  0.35217393  0.92966743     0.14400
C91         C  0.40637981  0.07914811  0.96443256     0.86200
C92         C  0.44253147  0.12921033  0.95500382    -0.54000
C93         C  0.42367338  0.15337368  0.94884137     0.09100
C94         C  0.36567096  0.12143938  0.95606048     0.20100
C95         C  0.38850623  0.09076952  0.98650889    -0.54700
C96         C  0.36239348  0.10665562  0.98275689     0.09200
C97         C  0.36550266  0.05380183  0.94577680    -0.54300
C98         C  0.33878705  0.07088444  0.94276059     0.09800
H99         H  0.48046287  0.14768620  0.95764176     0.14300
H100        H  0.34794006  0.13943923  0.95429666     0.00100
H101        H  0.39513149  0.08534396  0.00489082     0.14600
H102        H  0.37349916  0.04211807  0.92950668     0.14400
O103        O  0.36778122  0.14821082  0.14099291    -0.82100
C104        C  0.24056121  0.14082049  0.07898882     0.97300
O105        O  0.24686836  0.11140498  0.08730282    -0.71200
O106        O  0.30872660  0.09440842  0.09719741    -0.74800
Al107      Al  0.27128907  0.11003324  0.11660845     1.49000
C108        C  0.34177673  0.12248858  0.08268013     0.92500
O109        O  0.40435767  0.25095560  0.09856234    -0.81000
O110        O  0.34229558  0.25438732  0.14224375    -0.74600
Al111      Al  0.37891467  0.19623124  0.11928673     1.90100
O112        O  0.34134371  0.25106297  0.09354599    -0.73600
O113        O  0.25732648  0.18495495  0.14326221    -0.73500
O114        O  0.25186631  0.17761995  0.09156512    -0.79100
O115        O  0.22390337  0.11043002  0.13543071    -0.77300
O116        O  0.31664812  0.17369068  0.11750170    -1.13500
O117        O  0.29017041  0.10292533  0.14639085    -0.72700
C118        C  0.33143809  0.12302061  0.15458007     0.98000
C119        C  0.38358582  0.26599335  0.08770727     0.94400
Al120      Al  0.29911721  0.21343774  0.11748166     1.55600
O121        O  0.37467800  0.16366935  0.09004596    -0.77300
C122        C  0.23156105  0.14313398  0.14978918     0.98600
C123        C  0.36920841  0.25072631  0.15580988     0.93500
O124        O  0.38802455  0.23017072  0.14837371    -0.82600
C125        C  0.45455119  0.28010141  0.94157085     0.02000
C126        C  0.00891961  0.31121911  0.93271381     0.02000
C127        C  0.03237799  0.28743415  0.93007037    -0.18500
C128        C  0.01123652  0.23754181  0.93169060     0.02000
C129        C  0.45796742  0.20757759  0.94146286     0.02000
C130        C  0.43519996  0.23174836  0.94556771    -0.18500
H131        H  0.39955953  0.21205099  0.95297140     0.04000
H132        H  0.07017212  0.30977425  0.92640645     0.04000
C133        C  0.19341525  0.26266691  0.92593205     0.02000
C134        C  0.23014898  0.30781491  0.93718297     0.02000
C135        C  0.26732656  0.30687482  0.94984431    -0.18500
C136        C  0.27965743  0.27189083  0.94730481     0.02000
C137        C  0.24323693  0.22770656  0.93514574     0.02000
C138        C  0.20847158  0.23052470  0.92147350    -0.18500
H139        H  0.18615674  0.20025320  0.90977258     0.04000
H140        H  0.29083505  0.33855811  0.96064739     0.04000
C141        C  0.49609334  0.26525695  0.29928332     0.86200
C142        C  0.00093992  0.23003322  0.28340756    -0.54000
C143        C  0.04514198  0.24816725  0.27332653     0.09100
C144        C  0.08168461  0.30496198  0.28108674     0.20100
C145        C  0.03417743  0.28323254  0.31731925    -0.54700
C146        C  0.07841587  0.30233694  0.30930665     0.09200
C147        C  0.01089232  0.30629227  0.28408070    -0.54300
C148        C  0.05747292  0.33311558  0.27540952     0.09800
H149        H  0.47501741  0.19416221  0.28461259     0.14300
H150        H  0.11874149  0.32336634  0.27398303     0.00100
H151        H  0.02688575  0.28132701  0.33686317     0.14600
H152        H  0.48993456  0.32070894  0.28309153     0.14400
C153        C  0.25928293  0.25770799  0.29523534     0.86200
C154        C  0.28307625  0.30351354  0.28296376    -0.54000
C155        C  0.26493010  0.32790640  0.28399163     0.09100
C156        C  0.20967874  0.29256840  0.29398332     0.20100
C157        C  0.23477051  0.25579459  0.31815539    -0.54700
C158        C  0.21448720  0.27819174  0.31973849     0.09200
C159        C  0.21534916  0.22694681  0.27901400    -0.54300
C160        C  0.18416117  0.24080180  0.27894787     0.09800
H161        H  0.29405938  0.30145400  0.26534801     0.14300
H162        H  0.18936314  0.30850946  0.29498643     0.00100
H163        H  0.23239199  0.23490681  0.33310818     0.14600
H164        H  0.21847858  0.20937137  0.26366646     0.14400
C165        C  0.25203685  0.02770139  0.29475838     0.86200
C166        C  0.19914715  0.50005383  0.28171278    -0.54000
C167        C  0.17012449  0.45161501  0.28140134     0.09100
C168        C  0.20298343  0.43389062  0.29045677     0.20100
C169        C  0.23934290  0.50089584  0.31709576    -0.54700
C170        C  0.21441452  0.45458898  0.31670478     0.09200
C171        C  0.27347051  0.51166318  0.27760113    -0.54300
C172        C  0.25787895  0.46539723  0.27731020     0.09800
H173        H  0.19925006  0.02837492  0.27410176     0.14300
H174        H  0.18358074  0.39493147  0.28997559     0.00100
H175        H  0.25292004  0.51926426  0.33411026     0.14600
H176        H  0.28921533  0.03220823  0.26193775     0.14400
O177        O  0.08904809  0.26716205  0.47159873    -0.82100
C178        C  0.21663663  0.42356984  0.41780559     0.97300
O179        O  0.18834542  0.42422098  0.43288388    -0.71200
O180        O  0.11265870  0.34397993  0.41792843    -0.74800
Al181      Al  0.13592482  0.36803400  0.44864292     1.49000
C182        C  0.09562260  0.30365228  0.40835204     0.92500
O183        O  0.17116550  0.27450254  0.42492004    -0.81000
O184        O  0.22475264  0.34712987  0.48249617    -0.74600
Al185      Al  0.13218905  0.27624143  0.44786233     1.90100
O186        O  0.24313812  0.33520364  0.43355177    -0.73600
O187        O  0.23159305  0.42253300  0.47256877    -0.73500
O188        O  0.23843613  0.40570110  0.42371314    -0.79100
O189        O  0.15648884  0.39220980  0.48051647    -0.77300
O190        O  0.16583870  0.33907211  0.44935601    -1.13500
O191        O  0.07690011  0.32001262  0.46314570    -0.72700
C192        C  0.06985050  0.28794684  0.47655753     0.98000
C193        C  0.21528447  0.29885658  0.42058141     0.94400
Al194      Al  0.22986907  0.37480953  0.45285408     1.55600
O195        O  0.09419292  0.27142032  0.42004512    -0.77300
C196        C  0.19896288  0.41345161  0.48771907     0.98600
C197        C  0.19288579  0.30631020  0.48992888     0.93500
O198        O  0.16454062  0.27342680  0.47502501    -0.82600
C199        C  0.15911365  0.09908867  0.24106481     0.86200
C200        C  0.13798623  0.05245516  0.25272979    -0.54000
C201        C  0.09110682  0.02733715  0.26038193     0.09100
C202        C  0.07006897  0.05842003  0.25446986     0.20100
C203        C  0.12517318  0.08708457  0.22119045    -0.54700
C204        C  0.07948309  0.06636096  0.22668284     0.09200
C205        C  0.15235965  0.12793604  0.26026394    -0.54300
C206        C  0.10665401  0.11324920  0.26530032     0.09800
H207        H  0.15817654  0.03831864  0.25296777     0.14300
H208        H  0.03207325  0.04015260  0.25978569     0.00100
H209        H  0.13678640  0.09320916  0.20224053     0.14600
H210        H  0.17554428  0.14021878  0.27584219     0.14400
C211        C  0.39733260  0.33703809  0.24186628     0.86200
C212        C  0.37387538  0.35109490  0.25976640    -0.54000
C213        C  0.39093189  0.39746309  0.26213619     0.09100
C214        C  0.44490056  0.42841092  0.24849280     0.20100
C215        C  0.40730555  0.36472319  0.21961923    -0.54700
C216        C  0.43139154  0.41109461  0.22175704     0.09200
C217        C  0.44513298  0.35852721  0.25355197    -0.54300
C218        C  0.47579146  0.40697495  0.25525295     0.09800
H219        H  0.36445733  0.33159074  0.27609418     0.14300
H220        H  0.46559351  0.46732490  0.25039380     0.00100
H221        H  0.39759622  0.34826211  0.20163426     0.14600
H222        H  0.45247346  0.33505434  0.26065757     0.14400
C223        C  0.39402638  0.10264019  0.23900899     0.86200
C224        C  0.44427161  0.14151593  0.24882796    -0.54000
C225        C  0.47137865  0.12516739  0.25534195     0.09100
C226        C  0.44192391  0.06811863  0.24765756     0.20100
C227        C  0.40779725  0.08660073  0.21720545    -0.54700
C228        C  0.43270389  0.06930328  0.22040945     0.09200
C229        C  0.37168510  0.06472124  0.25805115    -0.54300
C230        C  0.38822257  0.03844387  0.26004087     0.09800
H231        H  0.45907165  0.17853416  0.24685943     0.14300
H232        H  0.46094256  0.05131826  0.24931211     0.00100
H233        H  0.40048858  0.09179976  0.19874436     0.14600
H234        H  0.36104430  0.07228636  0.27494182     0.14400
O235        O  0.42680608  0.45139683  0.05555985    -0.82100
C236        C  0.05749140  0.05851331  0.12490602     0.97300
O237        O  0.06291916  0.03178658  0.11088993    -0.71200
O238        O  0.48835635  0.45540375  0.11492037    -0.74800
Al239      Al  0.01858951  0.48958500  0.08751592     1.49000
C240        C  0.44486984  0.43195911  0.12037229     0.92500
O241        O  0.41320278  0.99461503  0.11353812    -0.81000
O242        O  0.48721400  0.06753478  0.05626995    -0.74600
Al243      Al  0.42440414  0.47774905  0.08534525     1.90100
O244        O  0.46284186  0.06946005  0.10475679    -0.73600
O245        O  0.06926362  0.08690853  0.06800318    -0.73500
O246        O  0.04043597  0.07937955  0.11677497    -0.79100
O247        O  0.05368127  0.01748569  0.05958966    -0.77300
O248        O  0.48400014  0.00881549  0.08610952    -1.13500
O249        O  0.48133800  0.44012919  0.06452143    -0.72700
C250        C  0.45600740  0.44203655  0.04879637     0.98000
C251        C  0.43454714  0.03752187  0.11956767     0.94400
Al252      Al  0.01366603  0.07246199  0.08641465     1.55600
O253        O  0.41492543  0.42791491  0.10557489    -0.77300
C254        C  0.07043404  0.05863689  0.05329019     0.98600
C255        C  0.44455762  0.03928808  0.04950159     0.93500
O256        O  0.41309213  0.00946791  0.06419091    -0.82600
C257        C  0.05822141  0.21162368  0.26652437     0.02000
C258        C  0.02567277  0.15878814  0.26302114     0.02000
C259        C  0.04710401  0.13391883  0.26595601    -0.18500
C260        C  0.09658162  0.15320164  0.26813707     0.02000
C261        C  0.12967884  0.20651027  0.27068642     0.02000
C262        C  0.10820597  0.23163661  0.26824455    -0.18500
H263        H  0.13203123  0.26957457  0.26884319     0.04000
H264        H  0.02355146  0.09645643  0.26725937     0.04000
C265        C  0.29968900  0.38130352  0.27573124     0.02000
C266        C  0.35288613  0.41062299  0.26854044    -0.01600
C267        C  0.37397947  0.45938367  0.26556369    -0.18500
C268        C  0.35076585  0.48289566  0.26671259     0.02000
C269        C  0.29700884  0.45311061  0.27294571     0.02000
C270        C  0.27628642  0.40455042  0.27703263    -0.18500
H271        H  0.23880633  0.38283564  0.28169718     0.04000
H272        H  0.41162415  0.48056002  0.26162628     0.04000
C273        C  0.11416612  0.43066317  0.27898769     0.02000
C274        C  0.07629298  0.38594030  0.26773668     0.02000
C275        C  0.04076294  0.38880721  0.25536649    -0.18500
C276        C  0.03000450  0.42470550  0.25864349     0.02000
C277        C  0.06804865  0.46942263  0.26952658     0.02000
C278        C  0.10230110  0.46569294  0.28275234    -0.18500
H279        H  0.12530824  0.49613550  0.29443741     0.04000
H280        H  0.01740303  0.35806942  0.24392787     0.04000
C281        C  0.32932370  0.43653598  0.63180355     0.86200
C282        C  0.33267259  0.39939263  0.61730711    -0.54000
C283        C  0.37651955  0.41449288  0.60735734     0.09100
C284        C  0.41529960  0.47177192  0.61426222     0.20100
C285        C  0.36746878  0.45643135  0.65005639    -0.54700
C286        C  0.41076166  0.47011648  0.64250781     0.09200
C287        C  0.34845681  0.47871714  0.61531958    -0.54300
C288        C  0.39522942  0.50365833  0.60729934     0.09800
H289        H  0.30476747  0.36224825  0.61933244     0.14300
H290        H  0.45233650  0.48779804  0.60755037     0.00100
H291        H  0.35982748  0.45692307  0.66941097     0.14600
H292        H  0.32862312  0.49283157  0.61374950     0.14400
C293        C  0.09001871  0.19172538  0.63204772     0.86200
C294        C  0.04148032  0.17130517  0.62083549    -0.54000
C295        C  0.00992396  0.12263219  0.61808841     0.09100
C296        C  0.04027333  0.10025691  0.62451236     0.20100
C297        C  0.08033080  0.16349883  0.65395802    -0.54700
C298        C  0.05475329  0.11707336  0.65142315     0.09200
C299        C  0.11233316  0.17707499  0.61338795    -0.54300
C300        C  0.09380813  0.13064920  0.61069362     0.09800
H301        H  0.03616590  0.19611545  0.61308587     0.14300
H302        H  0.01925367  0.06128634  0.62229381     0.00100
H303        H  0.09271336  0.18004352  0.67196557     0.14600
H304        H  0.11879568  0.19409904  0.59640464     0.14400
C305        C  0.09304993  0.42612265  0.62923820     0.86200
C306        C  0.11480046  0.46383696  0.61000068    -0.54000
C307        C  0.09792813  0.49015236  0.60859691     0.09100
C308        C  0.04546883  0.46141665  0.62218590     0.20100
C309        C  0.08118197  0.44316550  0.65162584    -0.54700
C310        C  0.05707104  0.46166643  0.64942608     0.09200
C311        C  0.04209906  0.38770393  0.61992426    -0.54300
C312        C  0.01506745  0.40457070  0.61433874     0.09800
H313        H  0.12471834  0.45561854  0.59286614     0.14300
H314        H  0.02720754  0.47881228  0.62046858     0.00100
H315        H  0.08633951  0.43438013  0.66967084     0.14600
H316        H  0.02721246  0.35050605  0.62107455     0.14400
O317        O  0.40334560  0.42853852  0.80611250    -0.82100
C318        C  0.05149211  0.08624909  0.75258071     0.97300
O319        O  0.52437348  0.08788888  0.76704163    -0.71200
O320        O  0.44536493  0.01234388  0.75188791    -0.74800
Al321      Al  0.46833733  0.03570445  0.78291818     1.49000
C322        C  0.41783598  0.46745681  0.74212224     0.92500
O323        O  0.47339450  0.42433284  0.75632351    -0.81000
O324        O  0.04646736  0.00336689  0.81806610    -0.74600
Al325      Al  0.44114347  0.43083990  0.78153183     1.90100
O326        O  0.05882349  0.98691554  0.76790926    -0.73600
O327        O  0.06570475  0.08404038  0.80824053    -0.73500
O328        O  0.06834294  0.06388568  0.75868051    -0.79100
O329        O  0.49007627  0.06078108  0.81399618    -0.77300
O330        O  0.49128584  0.00074386  0.78444400    -1.13500
O331        O  0.40776324  0.99231415  0.79879828    -0.72700
C332        C  0.39168690  0.45525137  0.81282962     0.98000
C333        C  0.01756942  0.44842280  0.75166229     0.94400
Al334      Al  0.05561740  0.03227668  0.78803770     1.55600
O335        O  0.40573411  0.43192662  0.75478197    -0.77300
C336        C  0.03418836  0.08138245  0.82224826     0.98600
C337        C  0.00043654  0.45225193  0.82413089     0.93500
O338        O  0.47080050  0.42106030  0.80819733    -0.82600
C339        C  0.23923185  0.00308790  0.57153201     0.86200
C340        C  0.21004646  0.01457431  0.58754239    -0.54000
C341        C  0.22505575  0.06143886  0.58860298     0.09100
C342        C  0.27957333  0.09402466  0.57510934     0.20100
C343        C  0.24401789  0.02613957  0.54833948    -0.54700
C344        C  0.26609324  0.07246877  0.54871204     0.09200
C345        C  0.28610302  0.03036624  0.58400724    -0.54300
C346        C  0.31465897  0.07829454  0.58414764     0.09800
H347        H  0.19672491  0.99461391  0.60368097     0.14300
H348        H  0.29759138  0.13283701  0.57548759     0.00100
H349        H  0.22978595  0.00569613  0.53152568     0.14600
H350        H  0.29446543  0.00907470  0.59237500     0.14400
C351        C  0.48968484  0.26252164  0.56685079     0.86200
C352        C  0.47471220  0.22146432  0.58332538    -0.54000
C353        C  0.42831780  0.19613496  0.59213083     0.09100
C354        C  0.40520368  0.22566063  0.58596198     0.20100
C355        C  0.44908924  0.23980136  0.54891154    -0.54700
C356        C  0.40672948  0.22769738  0.55761061     0.09200
C357        C  0.48566949  0.29801931  0.58262111    -0.54300
C358        C  0.44214691  0.28194523  0.59284580     0.09800
H359        H  0.49745078  0.20933473  0.58487667     0.14300
H360        H  0.36852982  0.20807967  0.59362746     0.00100
H361        H  0.45548663  0.24087257  0.52936459     0.14600
H362        H  0.51303451  0.33497794  0.58233340     0.14400
C363        C  0.22454686  0.27267615  0.57294132     0.86200
C364        C  0.27595602  0.30840077  0.58226694    -0.54000
C365        C  0.30199961  0.29033690  0.58615090     0.09100
C366        C  0.27005049  0.23360326  0.57722282     0.20100
C367        C  0.23376576  0.25593849  0.54977014    -0.54700
C368        C  0.25523640  0.23426595  0.55091818     0.09200
C369        C  0.20163478  0.23150906  0.59002268    -0.54300
C370        C  0.21858110  0.20440060  0.59097447     0.09800
H371        H  0.29337667  0.34588475  0.58115221     0.14300
H372        H  0.28873781  0.21627979  0.57723899     0.00100
H373        H  0.22689183  0.26381371  0.53228887     0.14600
H374        H  0.19124057  0.24003913  0.60639470     0.14400
O375        O  0.41601388  0.21937795  0.40756908    -0.82100
C376        C  0.27023806  0.22026906  0.45081678     0.97300
O377        O  0.31364499  0.24744992  0.44567723    -0.71200
O378        O  0.39493012  0.26106006  0.44702904    -0.74800
Al379      Al  0.35177449  0.25108467  0.42128815     1.49000
C380        C  0.38715280  0.22978347  0.46177867     0.92500
O381        O  0.30949364  0.10482058  0.43411754    -0.81000
O382        O  0.26388627  0.10629866  0.39331487    -0.74600
Al383      Al  0.35787135  0.16528761  0.42074481     1.90100
O384        O  0.25114455  0.11203232  0.44224398    -0.73600
O385        O  0.26279287  0.17875433  0.38658954    -0.73500
O386        O  0.24303287  0.18334574  0.43763446    -0.79100
O387        O  0.31469048  0.25307005  0.39689061    -0.77300
O388        O  0.32265144  0.18815104  0.41927906    -1.13500
O389        O  0.39279550  0.26223856  0.39594527    -0.72700
C390        C  0.41722748  0.24638806  0.39228244     0.98000
C391        C  0.27476292  0.09570988  0.44746845     0.94400
Al392      Al  0.25961883  0.14836748  0.41523036     1.55600
O393        O  0.37392460  0.18897999  0.45372261    -0.77300
C394        C  0.28960806  0.22162941  0.38096372     0.98600
C395        C  0.29855259  0.11533473  0.37964739     0.93500
O396        O  0.34106760  0.14040575  0.38781646    -0.82600
C397        C  0.38831997  0.37602238  0.60129065     0.02000
C398        C  0.35711862  0.32410095  0.59398081     0.02000
C399        C  0.38010762  0.30000980  0.59337732    -0.18500
C400        C  0.42898081  0.31889359  0.59855490     0.02000
C401        C  0.46004924  0.37037246  0.60579067     0.02000
C402        C  0.43692555  0.39434362  0.60652813    -0.18500
H403        H  0.45734318  0.42966032  0.61316702     0.04000
H404        H  0.35875055  0.26384492  0.58766756     0.04000
C405        C  0.18407508  0.14865158  0.59687665     0.02000
C406        C  0.13110323  0.11754166  0.60342014     0.02000
C407        C  0.11038512  0.06825488  0.60471596    -0.18500
C408        C  0.13385160  0.04465803  0.60227863     0.02000
C409        C  0.18713381  0.07503003  0.59560628     0.02000
C410        C  0.20768770  0.12481432  0.59389165    -0.18500
H411        H  0.24533996  0.14661762  0.59006401     0.04000
H412        H  0.07259567  0.04684038  0.60814018     0.04000
C413        C  0.45470344  0.10396418  0.61165104     0.02000
C414        C  0.41578317  0.05831991  0.60091622     0.02000
C415        C  0.38172948  0.06233707  0.58748609    -0.18500
C416        C  0.37028832  0.09817567  0.58964660     0.02000
C417        C  0.40886490  0.14332588  0.60039814     0.02000
C418        C  0.44419973  0.14049028  0.61337347    -0.18500
H419        H  0.46653594  0.17137525  0.62484226     0.04000
H420        H  0.36002567  0.03227140  0.57562962     0.04000
C421        C  0.26269071  0.22119590  0.52635888    -0.00400
C422        C  0.29938981  0.26097033  0.51380114    -0.12300
C423        C  0.29441164  0.26720870  0.48949316     0.01800
C424        C  0.25668149  0.22933334  0.47540719    -0.00500
C425        C  0.21705095  0.19192526  0.48802633    -0.12200
C426        C  0.22061386  0.18678045  0.51309508     0.01700
H427        H  0.32897195  0.29048652  0.52398385     0.14700
H428        H  0.18689320  0.16303818  0.47792504     0.14700
C429        C  0.18061674  0.14598139  0.52513012     0.36300
C430        C  0.32990596  0.31268541  0.47912085     0.36200
N431        N  0.14861290  0.11309611  0.53468063    -0.44000
N432        N  0.35838209  0.34897628  0.47075030    -0.44000
C433        C  0.38440779  0.24269492  0.54048706    -0.00400
C434        C  0.34630240  0.20506632  0.52803510    -0.12300
C435        C  0.34681631  0.20358118  0.50263733     0.01800
C436        C  0.38648903  0.23783767  0.48881635    -0.00500
C437        C  0.41876145  0.28102639  0.50091817    -0.12200
C438        C  0.41487314  0.28460315  0.52648415     0.01700
H439        H  0.31669889  0.17665336  0.53827215     0.14700
H440        H  0.44582645  0.31160158  0.49068683     0.14700
C441        C  0.44350352  0.33055351  0.53809691     0.36300
C442        C  0.30225791  0.17466284  0.49136969     0.36200
N443        N  0.46536248  0.36818831  0.54683528    -0.44000
N444        N  0.26488804  0.15306116  0.48307385    -0.44000
C445        C  0.27273840  0.08926692  0.52351426    -0.00400
C446        C  0.22951174  0.06995395  0.51065587    -0.12300
C447        C  0.22633617  0.05949954  0.48559783     0.01800
C448        C  0.26847861  0.07554939  0.47195970    -0.00500
C449        C  0.31055167  0.09094345  0.48468267    -0.12200
C450        C  0.31271117  0.09727551  0.51008950     0.01700
H451        H  0.19696995  0.05861982  0.52077046     0.14700
H452        H  0.34315061  0.10217676  0.47469647     0.14700
C453        C  0.35638433  0.11184278  0.52214068     0.36300
C454        C  0.18083275  0.03805011  0.47377012     0.36200
N455        N  0.39144614  0.12348475  0.53170785    -0.44000
N456        N  0.14451989  0.02091015  0.46413378    -0.44000
C457        C  0.03787922  0.46337691  0.67394900    -0.00400
C458        C  0.07418762  0.49663824  0.69029018    -0.12300
C459        C  0.07211196  0.48877021  0.71531618     0.01800
C460        C  0.03052493  0.44946588  0.72552487    -0.00500
C461        C  0.99544487  0.41475525  0.70961500    -0.12200
C462        C  0.00037970  0.41980733  0.68434851     0.01700
H463        H  0.11080290  0.02931940  0.68089957     0.14700
H464        H  0.46463502  0.37893844  0.71727924     0.14700
C465        C  0.47368501  0.37298579  0.67030914     0.36300
C466        C  0.12238831  0.02888186  0.72763677     0.36200
N467        N  0.45305832  0.33712294  0.65969949    -0.44000
N468        N  0.15758537  0.05470443  0.73808532    -0.44000
C469        C  0.05707370  0.10075067  0.72696714    -0.00400
C470        C  0.08834517  0.09759975  0.71132347    -0.12300
C471        C  0.08457624  0.09694247  0.68598022     0.01800
C472        C  0.04654695  0.09593077  0.67559401    -0.00500
C473        C  0.02032803  0.10628628  0.69169518    -0.12200
C474        C  0.02613346  0.10996079  0.71677117     0.01700
H475        H  0.11758061  0.09849364  0.71898299     0.14700
H476        H  0.99822330  0.11618685  0.68420060     0.14700
C477        C  0.00273320  0.12687443  0.73123658     0.36300
C478        C  0.12539169  0.10749209  0.67137062     0.36200
N479        N  0.98429073  0.14086756  0.74273953    -0.44000
N480        N  0.15862925  0.11670698  0.66000289    -0.44000
C481        C  0.43850958  0.47355190  0.66372928    -0.00400
C482        C  0.44839311  0.51228231  0.67818505    -0.12300
C483        C  0.43166949  0.50639712  0.70219741     0.01800
C484        C  0.41835303  0.46587786  0.71499826    -0.00500
C485        C  0.41402252  0.42831316  0.70172628    -0.12200
C486        C  0.42043156  0.43043251  0.67623108     0.01700
H487        H  0.45312052  0.54175452  0.66865608     0.14700
H488        H  0.40139500  0.39571988  0.71089224     0.14700
C489        C  0.39467836  0.38522469  0.66343243     0.36300
C490        C  0.41888690  0.53746519  0.71147950     0.36200
N491        N  0.37220004  0.34807192  0.65414299    -0.44000
N492        N  0.39323707  0.04997683  0.71883762    -0.44000
C493        C  0.44572992  0.05869659  0.19654831    -0.00400
C494        C  0.40585145  0.01782254  0.18577763    -0.12300
C495        C  0.39714591  0.01430488  0.16092222     0.01800
C496        C  0.43231376  0.04898636  0.14535378    -0.00500
C497        C  0.47060000  0.09134974  0.15555196    -0.12200
C498        C  0.47534733  0.09773571  0.18077902     0.01700
H499        H  0.37610824  0.99371049  0.19749887     0.14700
H500        H  0.49560423  0.12039178  0.14387144     0.14700
C501        C  0.50125142  0.14635051  0.18972158     0.36300
C502        C  0.35724283  0.48500880  0.15313138     0.36200
N503        N  0.02457063  0.18470357  0.19769890    -0.44000
N504        N  0.31915840  0.45631401  0.14611288    -0.44000
C505        C  0.44206048  0.43161834  0.19726493    -0.00400
C506        C  0.47120976  0.42196441  0.18336634    -0.12300
C507        C  0.46439207  0.41118431  0.15859869     0.01800
C508        C  0.43292729  0.41658347  0.14586183    -0.00500
C509        C  0.40084532  0.42193152  0.15926480    -0.12200
C510        C  0.40356199  0.42689377  0.18479820     0.01700
H511        H  0.49431921  0.41531706  0.19273241     0.14700
H512        H  0.37267325  0.42020625  0.14976309     0.14700
C513        C  0.36183500  0.41723557  0.19818265     0.36300
C514        C  0.48755670  0.39137172  0.14669345     0.36200
N515        N  0.32880044  0.40953987  0.20921934    -0.44000
N516        N  0.50561670  0.37502839  0.13712548    -0.44000
C517        C  0.05259952  0.05560409  0.20382682    -0.00400
C518        C  0.05308467  0.02114850  0.18950479    -0.12300
C519        C  0.06272766  0.02578471  0.16438029     0.01800
C520        C  0.06433647  0.06130301  0.15179364    -0.00500
C521        C  0.06519973  0.09664011  0.16566843    -0.12200
C522        C  0.06242401  0.09562982  0.19118769     0.01700
H523        H  0.05742789  0.99674579  0.19889316     0.14700
H524        H  0.07164525  0.12722224  0.15659922     0.14700
C525        C  0.08390709  0.14094469  0.20372644     0.36300
C526        C  0.07947459  0.99955664  0.15298432     0.36200
N527        N  0.10310801  0.17775429  0.21333175    -0.44000
N528        N  0.09469193  0.97995250  0.14404415    -0.44000
C529        C  0.22555520  0.45166082  0.56359775    -0.00400
C530        C  0.26253615  0.45600494  0.54845405    -0.12300
C531        C  0.25623428  0.44886979  0.52332411     0.01800
C532        C  0.20937902  0.42403099  0.51404125    -0.00500
C533        C  0.17111671  0.40406618  0.53099636    -0.12200
C534        C  0.17916385  0.41699200  0.55580629     0.01700
H535        H  0.30054925  0.97879260  0.55423108     0.14700
H536        H  0.13558535  0.37854902  0.52482366     0.14700
C537        C  0.14219638  0.39071428  0.57365883     0.36300
C538        C  0.29828070  0.46819286  0.50797762     0.36200
N539        N  0.11314205  0.36857101  0.58822127    -0.44000
N540        N  0.33191408  0.48393502  0.49563590    -0.44000
C541        C  0.18669017  0.29913142  0.51674367    -0.00400
C542        C  0.21661043  0.33795241  0.53268552    -0.12300
C543        C  0.21347704  0.33185021  0.55785251     0.01800
C544        C  0.19064851  0.28637601  0.56627484    -0.00500
C545        C  0.14978761  0.25101967  0.55274509    -0.12200
C546        C  0.15042425  0.25549031  0.52733681     0.01700
H547        H  0.24430830  0.37165384  0.52555155     0.14700
H548        H  0.12752299  0.21542846  0.55945604     0.14700
C549        C  0.12386650  0.21242673  0.51279397     0.36300
C550        C  0.23779482  0.37038358  0.57516399     0.36200
N551        N  0.10463337  0.17804228  0.50095661    -0.44000
N552        N  0.25545483  0.39938376  0.59027171    -0.44000
C553        C  0.03528299  0.28566719  0.55161434    -0.00400
C554        C  0.04027999  0.25087941  0.54096123    -0.12300
C555        C  0.04064690  0.24556580  0.51575868     0.01800
C556        C  0.04818755  0.28146234  0.50075353    -0.00500
C557        C  0.05026817  0.31980627  0.51126867    -0.12200
C558        C  0.04615967  0.32350776  0.53628839     0.01700
H559        H  0.52806499  0.21681520  0.54870133     0.14700
H560        H  0.05865535  0.34905101  0.50011700     0.14700
C561        C  0.05422909  0.36746661  0.54494650     0.36300
C562        C  0.02517108  0.19976516  0.50565795     0.36200
N563        N  0.06231451  0.40374793  0.55118675    -0.44000
N564        N  0.01091550  0.16247695  0.49767726    -0.44000
C565        C  0.27447340  0.07887492  0.30275225    -0.00400
C566        C  0.24247982  0.08434763  0.31652517    -0.12300
C567        C  0.24697805  0.09046139  0.34186555     0.01800
C568        C  0.28876958  0.09977672  0.35342132    -0.00500
C569        C  0.32568342  0.10519575  0.33805671    -0.12200
C570        C  0.32013967  0.10170588  0.31250217     0.01700
H571        H  0.20910041  0.07417768  0.30852860     0.14700
H572        H  0.36047107  0.11942423  0.34559225     0.14700
C573        C  0.35836023  0.13523550  0.29686507     0.36300
C574        C  0.20816966  0.08767860  0.35489530     0.36200
N575        N  0.38607239  0.16280852  0.28326351    -0.44000
N576        N  0.17652166  0.08507356  0.36492958    -0.44000
C577        C  0.20365412  0.43613776  0.34151664    -0.00400
C578        C  0.22573489  0.41583804  0.34946026    -0.12300
C579        C  0.22530666  0.40900300  0.37413682     0.01800
C580        C  0.21765242  0.43455716  0.39174665    -0.00500
C581        C  0.19623667  0.45626122  0.38400093    -0.12200
C582        C  0.18597511  0.45406115  0.35930338     0.01700
H583        H  0.23639515  0.39921631  0.33639314     0.14700
H584        H  0.18400919  0.47119600  0.39720409     0.14700
C585        C  0.15662709  0.46950219  0.35231480     0.36300
C586        C  0.20244451  0.36133778  0.37949086     0.36200
N587        N  0.13189872  0.97948974  0.34334527    -0.44000
N588        N  0.17822724  0.32231495  0.38443921    -0.44000
C589        C  0.29503201  0.23437191  0.35503686    -0.00400
C590        C  0.32337264  0.28161158  0.34831122    -0.12300
C591        C  0.32981951  0.29268162  0.32360085     0.01800
C592        C  0.29836253  0.25504171  0.30590316    -0.00500
C593        C  0.28168121  0.20927136  0.31255389    -0.12200
C594        C  0.28672550  0.20141162  0.33658677     0.01700
H595        H  0.33929923  0.30956186  0.36215940     0.14700
H596        H  0.26149496  0.17956179  0.29992785     0.14700
C597        C  0.32285072  0.19432573  0.33680293     0.36300
C598        C  0.35570981  0.34296305  0.31970115     0.36200
N599        N  0.35670638  0.19519725  0.33592918    -0.44000
N600        N  0.37682849  0.38367037  0.31810265    -0.44000
C601        C  0.22983965  0.28870984  0.39662284    -0.00400
C602        C  0.19292602  0.24678197  0.38502518    -0.12300
C603        C  0.18112670  0.24610416  0.36083288     0.01800
C604        C  0.21024235  0.28694391  0.34603106    -0.00500
C605        C  0.25348856  0.32534112  0.35666589    -0.12200
C606        C  0.26378261  0.32620298  0.38150887     0.01700
H607        H  0.16905619  0.21572015  0.39583709     0.14700
H608        H  0.27997311  0.35420516  0.34528821     0.14700
C609        C  0.30661880  0.36789325  0.39145012     0.36300
C610        C  0.14581650  0.19969670  0.35050211     0.36200
N611        N  0.34114821  0.40136598  0.39933771    -0.44000
N612        N  0.11939589  0.16184784  0.34251241    -0.44000
C613        C  0.45373920  0.24551034  0.31710328    -0.00400
C614        C  0.44716446  0.28008683  0.32676925    -0.12300
C615        C  0.44306703  0.28552099  0.35178475     0.01800
C616        C  0.43873786  0.25228054  0.36794636    -0.00500
C617        C  0.44074515  0.21532551  0.35862679    -0.12200
C618        C  0.44615484  0.21020209  0.33373092     0.01700
H619        H  0.45059893  0.30672232  0.31540556     0.14700
H620        H  0.43598553  0.18878890  0.37076271     0.14700
C621        C  0.45172177  0.17277688  0.32710786     0.36300
C622        C  0.44410575  0.32616345  0.36039078     0.36200
N623        N  0.45555682  0.14216335  0.32240824    -0.44000
N624        N  0.44510972  0.35869169  0.36743612    -0.44000
C625        C  0.10917997  0.31212337  0.33042539    -0.00400
C626        C  0.11161876  0.34745726  0.34534495    -0.12300
C627        C  0.09507303  0.33876617  0.36947408     0.01800
C628        C  0.08687512  0.29930787  0.38157083    -0.00500
C629        C  0.08702986  0.26472104  0.36745657    -0.12200
C630        C  0.09829496  0.27082209  0.34240343     0.01700
H631        H  0.11222768  0.37526586  0.33632815     0.14700
H632        H  0.07987514  0.23349180  0.37613538     0.14700
C633        C  0.08373413  0.22846230  0.32864286     0.36300
C634        C  0.08102214  0.36764352  0.38060196     0.36200
N635        N  0.06932999  0.19295570  0.31843214    -0.44000
N636        N  0.06906692  0.39011129  0.38956208    -0.44000
C637        C  0.33618032  0.11728273  0.18041993    -0.00400
C638        C  0.30978692  0.07247115  0.19023230    -0.12300
C639        C  0.31833620  0.06688167  0.21409969     0.01800
C640        C  0.35793939  0.10786327  0.22728306    -0.00500
C641        C  0.37744431  0.15243193  0.21770777    -0.12200
C642        C  0.35800789  0.15587159  0.19687825     0.01700
H643        H  0.28635423  0.04176541  0.17860213     0.14700
H644        H  0.40407076  0.18431653  0.22769566     0.14700
C645        C  0.32852848  0.16980326  0.20571723     0.36300
C646        C  0.29994026  0.01824209  0.21910222     0.36200
N647        N  0.30681851  0.17951816  0.21736320    -0.44000
N648        N  0.28519440  0.97894110  0.22181898    -0.44000
C649        C  0.37238990  0.26447044  0.18178071    -0.00400
C650        C  0.33340369  0.26311286  0.19173809    -0.12300
C651        C  0.33029521  0.27151005  0.21652721     0.01800
C652        C  0.37042870  0.28628695  0.23169393    -0.00500
C653        C  0.40196764  0.27474504  0.22283382    -0.12200
C654        C  0.40677300  0.26950011  0.19777737     0.01700
H655        H  0.30631852  0.25819617  0.17974471     0.14700
H656        H  0.42874404  0.27821216  0.23455529     0.14700
C657        C  0.44664610  0.26859675  0.18933710     0.36300
C658        C  0.29514267  0.28112654  0.22218319     0.36200
N659        N  0.47869570  0.26778162  0.18285176    -0.44000
N660        N  0.26618523  0.28853911  0.22452663    -0.44000
C661        C  0.21887606  0.13475735  0.17581561    -0.00400
C662        C  0.21767301  0.09805210  0.18661179    -0.12300
C663        C  0.21334084  0.09263915  0.21175254     0.01800
C664        C  0.20641112  0.12274315  0.22699431    -0.00500
C665        C  0.21808142  0.16521842  0.21628502    -0.12200
C666        C  0.21923771  0.16876719  0.19093362     0.01700
H667        H  0.22024382  0.07321104  0.17538964     0.14700
H668        H  0.21233261  0.18864239  0.22653159     0.14700
C669        C  0.21305994  0.20308401  0.18092559     0.36300
C670        C  0.21213676  0.05314217  0.22045666     0.36200
N671        N  0.20787344  0.23036383  0.17289454    -0.44000
N672        N  0.20997555  0.02018970  0.22649129    -0.44000
C673        C  0.41959218  0.04752698  0.97445421    -0.00400
C674        C  0.38245076  0.00870055  0.98803238    -0.12300
C675        C  0.38823905  0.00676055  0.01304818     0.01800
C676        C  0.43366093  0.03959671  0.02363207    -0.00500
C677        C  0.47247505  0.06935290  0.00801066    -0.12200
C678        C  0.46559353  0.07009788  0.98334566     0.01700
H679        H  0.34659005  0.98707614  0.98070419     0.14700
H680        H  0.50827400  0.09201334  0.01490960     0.14700
C681        C  0.50518245  0.09346180  0.96696415     0.36300
C682        C  0.34755401  0.97075579  0.02702808     0.36200
N683        N  0.53589317  0.11101109  0.95289885    -0.44000
N684        N  0.31517031  0.94157089  0.03822188    -0.44000
C685        C  0.33485176  0.10374120  0.00443005    -0.00400
C686        C  0.35263074  0.14672203  0.01552179    -0.12300
C687        C  0.35127228  0.14995458  0.04050824     0.01800
C688        C  0.33831188  0.11255816  0.05580679    -0.00500
C689        C  0.31516626  0.06737937  0.04493567    -0.12200
C690        C  0.31173424  0.06249066  0.01933593     0.01700
H691        H  0.36662672  0.17771281  0.00452891     0.14700
H692        H  0.30000903  0.03652077  0.05611144     0.14700
C693        C  0.28747156  0.01549600  0.00852346     0.36300
C694        C  0.34098778  0.18154502  0.04850953     0.36200
N695        N  0.26697712  0.97765558  0.00000159    -0.44000
N696        N  0.32610676  0.20301518  0.05335029    -0.44000
C697        C  0.45484521  0.41213290  0.97222080    -0.00400
C698        C  0.49236335  0.41767596  0.98656516    -0.12300
C699        C  0.49190656  0.42460845  0.01201751     0.01800
C700        C  0.46245364  0.43764353  0.02204992    -0.00500
C701        C  0.43873795  0.44796679  0.00565685    -0.12200
C702        C  0.43798909  0.43854074  0.98063457     0.01700
H703        H  0.50881567  0.39992327  0.98084442     0.14700
H704        H  0.41740413  0.45934504  0.01255699     0.14700
C705        C  0.41311502  0.44839091  0.96423033     0.36300
C706        C  0.51133660  0.40641411  0.02727854     0.36200
N707        N  0.39333028  0.45502275  0.95011843    -0.44000
N708        N  0.02422414  0.39244965  0.03958304    -0.44000
C709        C  0.37405799  0.27382578  0.01379209    -0.00400
C710        C  0.41251532  0.27302294  0.02207201    -0.12300
C711        C  0.42596677  0.28135920  0.04686385     0.01800
C712        C  0.40129555  0.29163835  0.06406834    -0.00500
C713        C  0.37124192  0.30308205  0.05477933    -0.12200
C714        C  0.35372529  0.28968771  0.03106942     0.01700
H715        H  0.43292729  0.26703904  0.00898953     0.14700
H716        H  0.35467090  0.31481711  0.06723104     0.14700
C717        C  0.32100874  0.30095085  0.02366615     0.36300
C718        C  0.46178902  0.27478872  0.05447076     0.36200
N719        N  0.29567043  0.31091137  0.01773128    -0.44000
N720        N  0.49062896  0.26959522  0.06053196    -0.44000
C721        C  0.08421224  0.07010159  0.02739554    -0.00400
C722        C  0.09121276  0.11053677  0.01804250    -0.12300
C723        C  0.10143987  0.12059435  0.99335959     0.01800
C724        C  0.10302465  0.08793389  0.97680130    -0.00500
C725        C  0.08230599  0.04218359  0.98587317    -0.12200
C726        C  0.08297268  0.03717348  0.01100482     0.01700
H727        H  0.09096766  0.13570975  0.03027739     0.14700
H728        H  0.08259971  0.01643238  0.97439434     0.14700
C729        C  0.09962937  0.00966729  0.01891497     0.36300
C730        C  0.11608262  0.16760470  0.98736793     0.36200
N731        N  0.11366939  0.48842696  0.02909603    -0.44000
N732        N  0.12758939  0.20552798  0.98331313    -0.44000
C733        C  0.25418845  0.14480010  0.00140552    -0.00400
C734        C  0.25630247  0.18153289  0.01499635    -0.12300
C735        C  0.23869588  0.17479070  0.03911832     0.01800
C736        C  0.22997819  0.13607209  0.05228800    -0.00500
C737        C  0.22925835  0.09992087  0.03904231    -0.12200
C738        C  0.24035068  0.10350869  0.01415717     0.01700
H739        H  0.26199809  0.21112338  0.00521389     0.14700
H740        H  0.22042073  0.06850195  0.04822940     0.14700
C741        C  0.22480693  0.06000813  0.00094512     0.36300
C742        C  0.23389666  0.21002071  0.05061847     0.36200
N743        N  0.21070046  0.02497488  0.99025144    -0.44000
N744        N  0.22992443  0.23805048  0.06006736    -0.44000
C745        C  0.27282197  0.42212436  0.70007596    -0.00400
C746        C  0.27299750  0.45375637  0.68472187    -0.12300
C747        C  0.27834852  0.45214769  0.65963588     0.01800
C748        C  0.28547663  0.41854499  0.64861368    -0.00500
C749        C  0.27626669  0.38142645  0.66397583    -0.12200
C750        C  0.27517081  0.38593655  0.68941137     0.01700
H751        H  0.26952152  0.48098845  0.69245617     0.14700
H752        H  0.28068025  0.35454758  0.65692383     0.14700
C753        C  0.28242025  0.35666019  0.70396514     0.36300
C754        C  0.28009660  0.48871581  0.64681713     0.36200
N755        N  0.28918188  0.33384588  0.71562235    -0.44000
N756        N  0.28228382  0.51969438  0.63782005    -0.44000
C757        C  0.12934735  0.27383158  0.69281274    -0.00400
C758        C  0.16532774  0.27301214  0.68073765    -0.12300
C759        C  0.16098555  0.25786277  0.65650676     0.01800
C760        C  0.11802189  0.24190709  0.64331498    -0.00500
C761        C  0.08715930  0.25255321  0.65435613    -0.12200
C762        C  0.08941126  0.26306131  0.67932640     0.01700
H763        H  0.19586952  0.28091854  0.69093594     0.14700
H764        H  0.05594073  0.24456918  0.64483312     0.14700
C765        C  0.05092315  0.26416638  0.68998150     0.36300
C766        C  0.19428401  0.24631548  0.64982678     0.36200
N767        N  0.01974122  0.26494762  0.69808921    -0.44000
N768        N  0.22226664  0.23790814  0.64625894    -0.44000
C769        C  0.14576226  0.40725374  0.68720764    -0.00400
C770        C  0.17358161  0.45276399  0.67805438    -0.12300
C771        C  0.16866124  0.45928607  0.65359311     0.01800
C772        C  0.12893718  0.41932177  0.64000269    -0.00500
C773        C  0.10912370  0.37408983  0.64889511    -0.12200
C774        C  0.12749048  0.36981925  0.66994886     0.01700
H775        H  0.19422127  0.48305444  0.69033526     0.14700
H776        H  0.08278987  0.34263250  0.63855549     0.14700
C777        C  0.16025274  0.35938795  0.66132090     0.36300
C778        C  0.18904953  0.50817140  0.64814440     0.36200
N779        N  0.18448556  0.35157662  0.65058281    -0.44000
N780        N  0.20517584  0.54764916  0.64490736    -0.44000
C781        C  0.05182228  0.11729860  0.89803609    -0.00400
C782        C  0.08990031  0.11978376  0.88500666    -0.12300
C783        C  0.08726336  0.11363999  0.85965806     0.01800
C784        C  0.04245227  0.09324118  0.84845222    -0.00500
C785        C  0.00177672  0.07569179  0.86365868    -0.12200
C786        C  0.00654178  0.08587341  0.88851777     0.01700
H787        H  0.12462405  0.13712527  0.89313238     0.14700
H788        H  0.46427338  0.05003425  0.85647457     0.14700
C789        C  0.96761146  0.05764333  0.90497653     0.36300
C790        C  0.13071951  0.13033966  0.84597776     0.36200
N791        N  0.43748836  0.03205888  0.91936337    -0.44000
N792        N  0.16571084  0.14427171  0.83504459    -0.44000
C793        C  0.10725269  0.25778469  0.86169689    -0.00400
C794        C  0.14859448  0.26883689  0.84909438    -0.12300
C795        C  0.15115502  0.27157401  0.82378523     0.01800
C796        C  0.11266981  0.26593698  0.81087435    -0.00500
C797        C  0.07046855  0.25221135  0.82338488    -0.12200
C798        C  0.06685691  0.24642539  0.84831585     0.01700
H799        H  0.17769894  0.27259915  0.85898871     0.14700
H800        H  0.04018362  0.24621127  0.81363757     0.14700
C801        C  0.02028035  0.22497814  0.85975250     0.36300
C802        C  0.19392039  0.28086184  0.81189056     0.36200
N803        N  0.98305911  0.20669424  0.86907458    -0.44000
N804        N  0.22818259  0.28798684  0.80250185    -0.44000
C805        C  0.35747540  0.45009596  0.88901129    -0.00400
C806        C  0.36542991  0.41770308  0.87803167    -0.12300
C807        C  0.36693113  0.41402904  0.85278963     0.01800
C808        C  0.37430377  0.45063714  0.83818465    -0.00500
C809        C  0.37626498  0.48838297  0.84950941    -0.12200
C810        C  0.36870731  0.48910932  0.87455123     0.01700
H811        H  0.35955349  0.38851943  0.88814906     0.14700
H812        H  0.38377912  0.51771230  0.83874725     0.14700
C813        C  0.36458304  0.52645653  0.88334403     0.36300
C814        C  0.35315272  0.36894784  0.84232227     0.36200
N815        N  0.36144355  0.55716809  0.88900042    -0.44000
N816        N  0.34045912  0.33250846  0.83370561    -0.44000
C817        C  0.21198988  0.41431177  0.87545716    -0.00400
C818        C  0.24524355  0.45795562  0.86359185    -0.12300
C819        C  0.25195002  0.45895910  0.83798890     0.01800
C820        C  0.22193525  0.41726791  0.82391405    -0.00500
C821        C  0.18055342  0.37970640  0.83566050    -0.12200
C822        C  0.17565445  0.37917460  0.86113810     0.01700
H823        H  0.27131272  0.48838539  0.87448647     0.14700
H824        H  0.15136814  0.35209440  0.82489178     0.14700
C825        C  0.13159063  0.34682390  0.87328375     0.36300
C826        C  0.29047936  0.50189500  0.82682033     0.36200
N827        N  0.09522806  0.32330342  0.88324919    -0.44000
N828        N  0.32100951  0.53627234  0.81760632    -0.44000
C829        C  0.00387902  0.43620927  0.90132619    -0.00400
C830        C  0.96853505  0.39569905  0.88692892    -0.12300
C831        C  0.96607847  0.39929236  0.86165156     0.01800
C832        C  0.99358987  0.44427795  0.85111086    -0.00500
C833        C  0.01583144  0.48409330  0.86727266    -0.12200
C834        C  0.01795744  0.47962129  0.89245068     0.01700
H835        H  0.95522623  0.36044037  0.89250992     0.14700
H836        H  0.04959534  0.02779111  0.86182788     0.14700
C837        C  0.04086947  0.51957058  0.90892565     0.36300
C838        C  0.94246464  0.35633350  0.84692602     0.36200
N839        N  0.05767652  0.54948873  0.92357075    -0.44000
N840        N  0.42252138  0.32251291  0.83465150    -0.44000
C841        C  0.10553390  0.40713557  0.81120615    -0.00400
C842        C  0.06634375  0.36662048  0.82217833    -0.12300
C843        C  0.06168590  0.36403750  0.84752625     0.01800
C844        C  0.09839746  0.40088385  0.86249726    -0.00500
C845        C  0.13677401  0.44155209  0.85154070    -0.12200
C846        C  0.13965210  0.44587665  0.82642892     0.01700
H847        H  0.03968204  0.33674431  0.81103991     0.14700
H848        H  0.16257442  0.47166717  0.86289228     0.14700
C849        C  0.17849167  0.49103778  0.81708967     0.36300
C850        C  0.01763576  0.32485646  0.85805288     0.36200
N851        N  0.20994842  0.52727558  0.80987207    -0.44000
N852        N  0.98233376  0.29420580  0.86682525    -0.44000
C853        C  0.04529273  0.93453031  0.91034265     0.86200
C854        C  0.09167379  0.96880002  0.92486026    -0.54000
C855        C  0.12300319  0.95547509  0.92572253     0.09100
C856        C  0.09649776  0.90150641  0.91350168     0.20100
C857        C  0.06430817  0.92897357  0.88682904    -0.54700
C858        C  0.08806689  0.90995987  0.88724084     0.09200
C859        C  0.02311360  0.89023345  0.92454782    -0.54300
C860        C  0.04226758  0.86598083  0.92470357     0.09800
H861        H  0.09056431  0.98882361  0.93964574     0.14300
H862        H  0.11734068  0.88651674  0.91360070     0.00100
H863        H  0.06112326  0.94183778  0.86990382     0.14600
H864        H  0.01415179  0.89593470  0.94207093     0.14400
C865        C  0.31161233  0.92749939  0.90290603     0.86200
C866        C  0.29447033  0.88381604  0.91717666    -0.54000
C867        C  0.24835942  0.85928605  0.92612402     0.09100
C868        C  0.22606391  0.89065840  0.92018872     0.20100
C869        C  0.27325986  0.90805078  0.88410281    -0.54700
C870        C  0.23093573  0.89673068  0.89198577     0.09200
C871        C  0.30719763  0.95981863  0.92117752    -0.54300
C872        C  0.26263104  0.94591140  0.92881129     0.09800
H873        H  0.31646217  0.87087441  0.91821024     0.14300
H874        H  0.18864964  0.87283588  0.92670817     0.00100
H875        H  0.28149580  0.91084242  0.86469183     0.14600
H876        H  0.33207393  0.97173094  0.93575183     0.14400
C877        C  0.06354689  0.66481258  0.90554098     0.86200
C878        C  0.02842901  0.67456863  0.91726173    -0.54000
C879        C  0.04678509  0.72157411  0.92277387     0.09100
C880        C  0.10381797  0.75508945  0.91258118     0.20100
C881        C  0.07731954  0.69183099  0.88296473    -0.54700
C882        C  0.09800116  0.73769765  0.88542782     0.09200
C883        C  0.10746785  0.68987792  0.92137709    -0.54300
C884        C  0.13617580  0.73836946  0.92279039     0.09800
H885        H  0.99053376  0.64763880  0.91600839     0.14300
H886        H  0.12218960  0.79368519  0.91486514     0.00100
H887        H  0.06849375  0.67466011  0.86503719     0.14600
H888        H  0.11723002  0.66769616  0.92706112     0.14400
O889        O  0.16043305  0.93124995  0.72942324    -0.82100
C890        C  0.11451538  0.78231847  0.78636873     0.97300
O891        O  0.09347531  0.80103167  0.78084639    -0.71200
O892        O  0.08961202  0.87090358  0.77098703    -0.74800
Al893      Al  0.10153437  0.83078652  0.75143991     1.49000
C894        C  0.11852502  0.90422959  0.78545287     0.92500
O895        O  0.23938168  0.94077970  0.78116302    -0.81000
O896        O  0.25452999  0.89067220  0.74105131    -0.74600
Al897      Al  0.19730214  0.93120508  0.75504606     1.90100
O898        O  0.21554163  0.86855032  0.78926886    -0.73600
O899        O  0.17671617  0.81358327  0.72605548    -0.73500
O900        O  0.14600221  0.78551041  0.77242474    -0.79100
O901        O  0.10034510  0.78285271  0.73182212    -0.77300
O902        O  0.16504898  0.86803375  0.75456750    -1.13500
O903        O  0.10592501  0.85641075  0.72113941    -0.72700
C904        C  0.13663884  0.89765187  0.71401305     0.98000
C905        C  0.22803583  0.90932710  0.79666400     0.94400
Al906      Al  0.19658461  0.84174106  0.75713331     1.55600
O907        O  0.16158348  0.93158065  0.77987095    -0.77300
C908        C  0.13418384  0.78924784  0.71833366     0.98600
C909        C  0.25511168  0.91630894  0.72504268     0.93500
O910        O  0.23673686  0.93807416  0.72985672    -0.82600
C911        C  0.21291638  0.54488022  0.93609836     0.02000
C912        C  0.17869967  0.99109672  0.93243911     0.02000
C913        C  0.20096549  0.96598519  0.93337576    -0.18500
C914        C  0.25089195  0.98495673  0.93341871     0.02000
C915        C  0.28472602  0.53801886  0.93739408     0.02000
C916        C  0.26286133  0.56350048  0.93681418    -0.18500
H917        H  0.28644538  0.60120923  0.93661926     0.04000
H918        H  0.17764920  0.92831492  0.93457427     0.04000
C919        C  0.15084415  0.60410090  0.96350215     0.86200
C920        C  0.15736221  0.57227712  0.94581275    -0.54000
C921        C  0.20313018  0.58541978  0.94152420     0.09100
C922        C  0.24045017  0.64100370  0.95188055     0.20100
C923        C  0.18271266  0.61483476  0.98411239    -0.54700
C924        C  0.22877027  0.63506093  0.97964578     0.09200
C925        C  0.17515809  0.65053925  0.95099514    -0.54300
C926        C  0.22211355  0.67385158  0.94412807     0.09800
H927        H  0.13479017  0.55760225  0.93017999     0.14300
H928        H  0.27874820  0.65765485  0.94779966     0.00100
H929        H  0.16957373  0.60867948  0.00279592     0.14600
H930        H  0.15845749  0.66809592  0.95129707     0.14400
C931        C  0.41712552  0.85996771  0.96248362     0.86200
C932        C  0.36817115  0.83930219  0.95145175    -0.54000
C933        C  0.33584849  0.79019209  0.95088076     0.09100
C934        C  0.36537090  0.76745278  0.95964705     0.20100
C935        C  0.40463163  0.83530484  0.98580018    -0.54700
C936        C  0.38019567  0.78890505  0.98589734     0.09200
C937        C  0.43620599  0.83978675  0.94560563    -0.54300
C938        C  0.41869751  0.79408119  0.94566449     0.09800
H939        H  0.36074206  0.86245078  0.94377869     0.14300
H940        H  0.34395223  0.72835964  0.95942291     0.00100
H941        H  0.41251556  0.85450284  0.00273283     0.14600
H942        H  0.44211160  0.85338679  0.92798595     0.14400
C943        C  0.41031049  0.58196335  0.96455078     0.86200
C944        C  0.44569106  0.63044788  0.95322420    -0.54000
C945        C  0.42656089  0.65443615  0.94691367     0.09100
C946        C  0.36923823  0.62357913  0.95544726     0.20100
C947        C  0.39525099  0.59700404  0.98652250    -0.54700
C948        C  0.36922847  0.61301322  0.98254322     0.09200
C949        C  0.36729948  0.55437602  0.94717369    -0.54300
C950        C  0.34045447  0.57121880  0.94389183     0.09800
H951        H  0.48374825  0.64866293  0.95515787     0.14300
H952        H  0.35140000  0.64134750  0.95355849     0.00100
H953        H  0.40299397  0.59318383  0.00497670     0.14600
H954        H  0.37347810  0.54039098  0.93128426     0.14400
O955        O  0.37993589  0.66087745  0.14010238    -0.82100
C956        C  0.24432601  0.64583376  0.08083919     0.97300
O957        O  0.25475359  0.61891905  0.08833563    -0.71200
O958        O  0.31945216  0.60520333  0.09706499    -0.74800
Al959      Al  0.28115524  0.61898012  0.11708533     1.49000
C960        C  0.35135636  0.63360464  0.08218267     0.92500
O961        O  0.40823722  0.76147110  0.09762519    -0.81000
O962        O  0.34981514  0.76464881  0.14113831    -0.74600
Al963      Al  0.38712237  0.70770390  0.11835252     1.90100
O964        O  0.34229976  0.75669761  0.09259293    -0.73600
O965        O  0.26569048  0.69127058  0.14558348    -0.73500
O966        O  0.25349790  0.68144565  0.09384695    -0.79100
O967        O  0.23302898  0.61721287  0.13644939    -0.77300
O968        O  0.32428658  0.68273511  0.11754898    -1.13500
O969        O  0.30260039  0.61345981  0.14647050    -0.72700
C970        C  0.34447159  0.63363059  0.15388412     0.98000
C971        C  0.38481854  0.77312881  0.08632147     0.94400
Al972      Al  0.30394486  0.72023207  0.11818038     1.55600
O973        O  0.38308529  0.67556481  0.08906111    -0.77300
C974        C  0.23989165  0.64879038  0.15143041     0.98600
C975        C  0.37676028  0.76114637  0.15473200     0.93500
O976        O  0.39602268  0.74113266  0.14728424    -0.82600
C977        C  0.45689182  0.78095567  0.93905565     0.02000
C978        C  0.00853700  0.81072832  0.93215867     0.02000
C979        C  0.03222139  0.78706417  0.92957698    -0.18500
C980        C  0.01122974  0.73709118  0.93123486     0.02000
C981        C  0.46045544  0.70847009  0.93903094     0.02000
C982        C  0.43732444  0.73240834  0.94249139    -0.18500
H983        H  0.40111376  0.71246532  0.94894490     0.04000
H984        H  0.07001012  0.80951830  0.92597330     0.04000
C985        C  0.19313760  0.76147682  0.92538240     0.02000
C986        C  0.23103351  0.80758967  0.93568516     0.02000
C987        C  0.26896844  0.80706388  0.94789366    -0.18500
C988        C  0.28066938  0.77146824  0.94589352     0.02000
C989        C  0.24277608  0.72634947  0.93505954     0.02000
C990        C  0.20754670  0.72863307  0.92154062    -0.18500
H991        H  0.18504424  0.69786219  0.91010135     0.04000
H992        H  0.29319318  0.83928350  0.95817428     0.04000
C993        C  0.49605836  0.75982750  0.29625594     0.86200
C994        C  0.00390492  0.73245959  0.27664646    -0.54000
C995        C  0.04998340  0.75091711  0.27053560     0.09100
C996        C  0.08460932  0.80698272  0.28137819     0.20100
C997        C  0.03260356  0.77467229  0.31513843    -0.54700
C998        C  0.07800054  0.79786704  0.30860804     0.09200
C999        C  0.01123054  0.80294100  0.28253208    -0.54300
C1000       C  0.05914737  0.83557288  0.27782723     0.09800
H1001       H  0.48122280  0.72340404  0.26121562     0.14300
H1002       H  0.12233405  0.82704370  0.27512378     0.00100
H1003       H  0.02330582  0.76915329  0.33442751     0.14600
H1004       H  0.48362934  0.80368090  0.27404357     0.14400
C1005       C  0.26214327  0.75784086  0.29510888     0.86200
C1006       C  0.28508482  0.80402751  0.28315431    -0.54000
C1007       C  0.26642255  0.82793562  0.28495090     0.09100
C1008       C  0.21130266  0.79134575  0.29496278     0.20100
C1009       C  0.23732897  0.75449914  0.31829593    -0.54700
C1010       C  0.21658357  0.77634412  0.32045732     0.09200
C1011       C  0.21827416  0.72689814  0.27896699    -0.54300
C1012       C  0.18627641  0.73980055  0.27951110     0.09800
H1013       H  0.29714369  0.80375384  0.26551570     0.14300
H1014       H  0.19051599  0.80678558  0.29639434     0.00100
H1015       H  0.23359178  0.73183661  0.33258493     0.14600
H1016       H  0.21867081  0.70453177  0.26557701     0.14400
C1017       C  0.24656371  0.52499011  0.29373408     0.86200
C1018       C  0.20534277  0.00454378  0.28185533    -0.54000
C1019       C  0.17421323  0.95597590  0.28128962     0.09100
C1020       C  0.20509724  0.93623329  0.29012068     0.20100
C1021       C  0.24318523  0.00208349  0.31778047    -0.54700
C1022       C  0.21643421  0.95553389  0.31645511     0.09200
C1023       C  0.27788493  0.01368550  0.27859055    -0.54300
C1024       C  0.26011843  0.96690642  0.27745434     0.09800
H1025       H  0.18973947  0.52240430  0.27558091     0.14300
H1026       H  0.18482180  0.89727381  0.28904792     0.00100
H1027       H  0.25668308  0.01968166  0.33514273     0.14600
H1028       H  0.28659215  0.53052910  0.26104337     0.14400
O1029       O  0.08750654  0.76908809  0.47018747    -0.82100
C1030       C  0.21596604  0.92356034  0.41678134     0.97300
O1031       O  0.18900564  0.92584733  0.43208266    -0.71200
O1032       O  0.11206602  0.84651707  0.41727465    -0.74800
Al1033     Al  0.13625924  0.87067869  0.44809946     1.49000
C1034       C  0.09548438  0.80628744  0.40765411     0.92500
O1035       O  0.16965139  0.77487332  0.42449112    -0.81000
O1036       O  0.22306767  0.84714841  0.48180528    -0.74600
Al1037     Al  0.13073145  0.77767622  0.44703752     1.90100
O1038       O  0.24162333  0.83492574  0.43353582    -0.73600
O1039       O  0.23230401  0.92404035  0.47184959    -0.73500
O1040       O  0.23788721  0.90586888  0.42284819    -0.79100
O1041       O  0.15767099  0.89514287  0.47994862    -0.77300
O1042       O  0.16512632  0.84054927  0.44874769    -1.13500
O1043       O  0.07738257  0.82386726  0.46313243    -0.72700
C1044       C  0.06948678  0.79065458  0.47587371     0.98000
C1045       C  0.21393266  0.79826696  0.42080920     0.94400
Al1046     Al  0.22906045  0.87529793  0.45226701     1.55600
O1047       O  0.09410746  0.77409825  0.41926884    -0.77300
C1048       C  0.20011863  0.91577425  0.48709457     0.98600
C1049       C  0.19139645  0.80609904  0.48912227     0.93500
O1050       O  0.16174895  0.77367799  0.47441156    -0.82600
C1051       C  0.15933092  0.59465691  0.24194255     0.86200
C1052       C  0.13602405  0.54597973  0.25268814    -0.54000
C1053       C  0.08923263  0.52226490  0.26057806     0.09100
C1054       C  0.07002823  0.55544256  0.25470936     0.20100
C1055       C  0.12620865  0.58405867  0.22181134    -0.54700
C1056       C  0.08043447  0.56392319  0.22695542     0.09200
C1057       C  0.15241361  0.62334412  0.26142240    -0.54300
C1058       C  0.10702073  0.61013247  0.26588771     0.09800
H1059       H  0.15175855  0.52718574  0.25019524     0.14300
H1060       H  0.03195125  0.53820624  0.25958739     0.00100
H1061       H  0.13854048  0.59089018  0.20294207     0.14600
H1062       H  0.17558664  0.63637691  0.27703549     0.14400
C1063       C  0.40123886  0.84157455  0.24096200     0.86200
C1064       C  0.37733546  0.85320824  0.26031429    -0.54000
C1065       C  0.39243027  0.89916648  0.26366822     0.09100
C1066       C  0.44543120  0.93208484  0.25011065     0.20100
C1067       C  0.40832122  0.87003654  0.21979983    -0.54700
C1068       C  0.43123535  0.91632684  0.22280788     0.09200
C1069       C  0.45140353  0.86484063  0.25017199    -0.54300
C1070       C  0.47767554  0.91221084  0.25658902     0.09800
H1071       H  0.36747581  0.83169180  0.27589020     0.14300
H1072       H  0.46524602  0.97063795  0.25309501     0.00100
H1073       H  0.39905567  0.85444900  0.20165525     0.14600
H1074       H  0.46619239  0.84464694  0.25007660     0.14400
C1075       C  0.39548890  0.60340347  0.24050546     0.86200
C1076       C  0.44164858  0.63807941  0.25484230    -0.54000
C1077       C  0.47118898  0.62323520  0.25826381     0.09100
C1078       C  0.44289052  0.56793965  0.24833695     0.20100
C1079       C  0.41456639  0.59322675  0.21843760    -0.54700
C1080       C  0.43826938  0.57465069  0.22138770     0.09200
C1081       C  0.36978914  0.56204044  0.25711387    -0.54300
C1082       C  0.38721748  0.53666435  0.25902096     0.09800
H1083       H  0.43680847  0.65411432  0.27028516     0.14300
H1084       H  0.46180301  0.55093939  0.24971537     0.00100
H1085       H  0.41055697  0.60203639  0.20016052     0.14600
H1086       H  0.35698823  0.56753769  0.27399197     0.14400
O1087       O  0.42289171  0.94288940  0.05518009    -0.82100
C1088       C  0.06037616  0.56267162  0.12521037     0.97300
O1089       O  0.06500305  0.53584522  0.11086923    -0.71200
O1090       O  0.48753215  0.95112144  0.11409190    -0.74800
Al1091     Al  0.01807110  0.98568059  0.08683310     1.49000
C1092       C  0.44447150  0.92853093  0.12040458     0.92500
O1093       O  0.41892192  0.50271650  0.11433278    -0.81000
O1094       O  0.49426142  0.57534049  0.05709280    -0.74600
Al1095     Al  0.41999000  0.96965014  0.08470521     1.90100
O1096       O  0.47026819  0.57764813  0.10596200    -0.73600
O1097       O  0.07110939  0.59055214  0.06809363    -0.73500
O1098       O  0.04389219  0.58433231  0.11742416    -0.79100
O1099       O  0.05345869  0.52002759  0.06034058    -0.77300
O1100       O  0.48840146  0.51509531  0.08707505    -1.13500
O1101       O  0.48033131  0.93552646  0.06338758    -0.72700
C1102       C  0.45394878  0.93639785  0.04793228     0.98000
C1103       C  0.44152412  0.54561501  0.12065922     0.94400
Al1104     Al  0.01650316  0.57770135  0.08713325     1.55600
O1105       O  0.41335464  0.92209913  0.10562566    -0.77300
C1106       C  0.07152903  0.56122333  0.05380670     0.98600
C1107       C  0.45130112  0.54801998  0.05054785     0.93500
O1108       O  0.41970583  0.51975396  0.06562910    -0.82600
C1109       C  0.06112612  0.71176367  0.26738753     0.02000
C1110       C  0.02738766  0.65825302  0.26537689     0.02000
C1111       C  0.04845538  0.63279263  0.26825881    -0.18500
C1112       C  0.09801139  0.65131764  0.26940630     0.02000
C1113       C  0.13158202  0.70498953  0.27170608     0.02000
C1114       C  0.11072055  0.73080772  0.26925364    -0.18500
H1115       H  0.13480676  0.76889137  0.26927773     0.04000
H1116       H  0.02443149  0.59525980  0.27001529     0.04000
C1117       C  0.30075048  0.88185314  0.27710343     0.02000
C1118       C  0.35390851  0.91162418  0.27001582    -0.01600
C1119       C  0.37503050  0.96070304  0.26725553    -0.18500
C1120       C  0.35182421  0.98415077  0.26777975     0.02000
C1121       C  0.29829099  0.95388919  0.27391518     0.02000
C1122       C  0.27744730  0.90525488  0.27853205    -0.18500
H1123       H  0.24007377  0.88361470  0.28355479     0.04000
H1124       H  0.41286220  0.98263911  0.26422095     0.04000
C1125       C  0.11862385  0.93710455  0.27909520     0.02000
C1126       C  0.07325543  0.88946601  0.27671300     0.02000
C1127       C  0.03169628  0.89250244  0.27660547    -0.18500
C1128       C  0.02826305  0.92976905  0.26747350     0.02000
C1129       C  0.07296645  0.97637779  0.27001818     0.02000
C1130       C  0.11071861  0.97514404  0.28112121    -0.18500
H1131       H  0.13594622  0.00734462  0.29110218     0.04000
H1132       H  0.99950778  0.86638051  0.28611310     0.04000
C1133       C  0.32855393  0.93474816  0.63143489     0.86200
C1134       C  0.33329034  0.89888347  0.61680265    -0.54000
C1135       C  0.37764236  0.91514220  0.60720990     0.09100
C1136       C  0.41559380  0.97230782  0.61478557     0.20100
C1137       C  0.36586480  0.95415308  0.65010631    -0.54700
C1138       C  0.40978381  0.96934008  0.64288789     0.09200
C1139       C  0.34780953  0.97743167  0.61522765    -0.54300
C1140       C  0.39516310  0.00377759  0.60798032     0.09800
H1141       H  0.30611909  0.86161790  0.61876201     0.14300
H1142       H  0.45303149  0.98939140  0.60856094     0.00100
H1143       H  0.35736544  0.95334388  0.66943706     0.14600
H1144       H  0.32686731  0.99004550  0.61301088     0.14400
C1145       C  0.08963299  0.69256905  0.63132229     0.86200
C1146       C  0.04128095  0.67168082  0.61972926    -0.54000
C1147       C  0.01016109  0.62302669  0.61704211     0.09100
C1148       C  0.04080175  0.60113366  0.62392195     0.20100
C1149       C  0.08002701  0.66444100  0.65328611    -0.54700
C1150       C  0.05443168  0.61809007  0.65093610     0.09200
C1151       C  0.11301458  0.67832249  0.61302879    -0.54300
C1152       C  0.09481409  0.63179675  0.61039876     0.09800
H1153       H  0.03526160  0.69619856  0.61226661     0.14300
H1154       H  0.01998937  0.56214244  0.62181446     0.00100
H1155       H  0.09277762  0.68106655  0.67122154     0.14600
H1156       H  0.12031128  0.69568907  0.59609375     0.14400
C1157       C  0.09316811  0.92598880  0.62994029     0.86200
C1158       C  0.11527776  0.96385329  0.61072543    -0.54000
C1159       C  0.09814720  0.98997429  0.60908841     0.09100
C1160       C  0.04565331  0.96123874  0.62258788     0.20100
C1161       C  0.08193017  0.94381630  0.65223228    -0.54700
C1162       C  0.05754380  0.96200236  0.64981363     0.09200
C1163       C  0.04221203  0.88753633  0.62060804    -0.54300
C1164       C  0.01527465  0.90424040  0.61489469     0.09800
H1165       H  0.12504027  0.95547086  0.59360965     0.14300
H1166       H  0.02710821  0.97831603  0.62072625     0.00100
H1167       H  0.08862106  0.93695969  0.67040517     0.14600
H1168       H  0.02705331  0.85027881  0.62173940     0.14400
O1169       O  0.41263704  0.93425045  0.80673547    -0.82100
C1170       C  0.04401847  0.57763593  0.75152092     0.97300
O1171       O  0.51697980  0.58122126  0.76540429    -0.71200
O1172       O  0.43628245  0.50759962  0.75201994    -0.74800
Al1173     Al  0.46119630  0.53070453  0.78255952     1.49000
C1174       C  0.42611057  0.97147946  0.74259836     0.92500
O1175       O  0.48559798  0.93216824  0.75810183    -0.81000
O1176       O  0.03451116  0.49263766  0.81718769    -0.74600
Al1177     Al  0.45179641  0.93759916  0.78262933     1.90100
O1178       O  0.04740317  0.47544292  0.76781596    -0.73600
O1179       O  0.05690031  0.57465993  0.80687410    -0.73500
O1180       O  0.05886471  0.55344448  0.75762147    -0.79100
O1181       O  0.48521722  0.55632925  0.81321377    -0.77300
O1182       O  0.48213195  0.49390098  0.78348546    -1.13500
O1183       O  0.40165580  0.48905306  0.79964721    -0.72700
C1184       C  0.39799426  0.95898833  0.81228203     0.98000
C1185       C  0.02805949  0.95852226  0.75232880     0.94400
Al1186     Al  0.04494507  0.52164945  0.78715777     1.55600
O1187       O  0.41597784  0.93692227  0.75553635    -0.77300
C1188       C  0.02661710  0.57393995  0.82098338     0.98600
C1189       C  0.01228481  0.96288224  0.82476700     0.93500
O1190       O  0.48159572  0.92923438  0.80933301    -0.82600
C1191       C  0.23750368  0.50049301  0.57146985     0.86200
C1192       C  0.20959250  0.51343979  0.58757871    -0.54000
C1193       C  0.22449439  0.56028803  0.58754561     0.09100
C1194       C  0.27820447  0.59158098  0.57310741     0.20100
C1195       C  0.24014294  0.52153874  0.54788571    -0.54700
C1196       C  0.26296992  0.56779979  0.54706121     0.09200
C1197       C  0.28543131  0.52884471  0.58309708    -0.54300
C1198       C  0.31393217  0.57672267  0.58242354     0.09800
H1199       H  0.19649783  0.49451045  0.60405375     0.14300
H1200       H  0.29621791  0.63034726  0.57279577     0.00100
H1201       H  0.22333551  0.49960814  0.53177123     0.14600
H1202       H  0.29451547  0.50827094  0.59175434     0.14400
C1203       C  0.49071097  0.76328967  0.56691716     0.86200
C1204       C  0.47453246  0.72120912  0.58280368    -0.54000
C1205       C  0.42780818  0.69560571  0.59110760     0.09100
C1206       C  0.40536466  0.72589091  0.58504766     0.20100
C1207       C  0.45122297  0.74217018  0.54851590    -0.54700
C1208       C  0.40824764  0.72880493  0.55667803     0.09200
C1209       C  0.48656785  0.79821854  0.58304877    -0.54300
C1210       C  0.44268336  0.78224235  0.59271532     0.09800
H1211       H  0.49703258  0.70886881  0.58436530     0.14300
H1212       H  0.36831225  0.70794100  0.59223568     0.00100
H1213       H  0.45845832  0.74361002  0.52903895     0.14600
H1214       H  0.51469544  0.83495271  0.58349564     0.14400
C1215       C  0.22671786  0.77317418  0.57229201     0.86200
C1216       C  0.27745636  0.80902594  0.58222335    -0.54000
C1217       C  0.30353280  0.79114917  0.58665020     0.09100
C1218       C  0.27236229  0.73459738  0.57753149     0.20100
C1219       C  0.23768447  0.75749196  0.54924588    -0.54700
C1220       C  0.25966527  0.73633675  0.55094989     0.09200
C1221       C  0.20304711  0.73161940  0.58918214    -0.54300
C1222       C  0.22001746  0.70473184  0.59047876     0.09800
H1223       H  0.29485038  0.84643869  0.58052921     0.14300
H1224       H  0.29091632  0.71718645  0.57795515     0.00100
H1225       H  0.23145380  0.76566149  0.53160064     0.14600
H1226       H  0.19249641  0.74002007  0.60553414     0.14400
O1227       O  0.41565371  0.71077546  0.40371022    -0.82100
C1228       C  0.27960808  0.72356405  0.45053765     0.97300
O1229       O  0.32258468  0.74924956  0.44438973    -0.71200
O1230       O  0.40042836  0.75632579  0.44423998    -0.74800
Al1231     Al  0.35760012  0.74932032  0.41916066     1.49000
C1232       C  0.38900251  0.72430463  0.45935677     0.92500
O1233       O  0.30623430  0.59988076  0.43207802    -0.81000
O1234       O  0.26079006  0.60541699  0.39163437    -0.74600
Al1235     Al  0.35626378  0.65920450  0.41820488     1.90100
O1236       O  0.25105261  0.61126687  0.44100035    -0.73600
O1237       O  0.26452370  0.68078432  0.38622379    -0.73500
O1238       O  0.24998849  0.68693103  0.43771688    -0.79100
O1239       O  0.32117417  0.75429706  0.39570966    -0.77300
O1240       O  0.32448358  0.68578734  0.41733447    -1.13500
O1241       O  0.39631539  0.75716627  0.39281178    -0.72700
C1242       C  0.41848386  0.73893453  0.38853481     0.98000
C1243       C  0.27209835  0.59197364  0.44554113     0.94400
Al1244     Al  0.26107676  0.64920116  0.41436655     1.55600
O1245       O  0.37416017  0.68299173  0.45132753    -0.77300
C1246       C  0.29318506  0.72330007  0.38031103     0.98600
C1247       C  0.29420087  0.61181367  0.37772805     0.93500
O1248       O  0.33681023  0.63407154  0.38561270    -0.82600
C1249       C  0.38993385  0.87724161  0.60096778     0.02000
C1250       C  0.35854785  0.82506452  0.59443248     0.02000
C1251       C  0.38137171  0.80092509  0.59411533    -0.18500
C1252       C  0.43027696  0.81987766  0.59882697     0.02000
C1253       C  0.46153596  0.87184166  0.60559036     0.02000
C1254       C  0.43903209  0.89627771  0.60501932    -0.18500
H1255       H  0.46095192  0.93305707  0.60876757     0.04000
H1256       H  0.35976214  0.76450848  0.58911149     0.04000
C1257       C  0.18491565  0.64885976  0.59609622     0.02000
C1258       C  0.13191529  0.61826438  0.60286667     0.02000
C1259       C  0.11085072  0.56883937  0.60422149    -0.18500
C1260       C  0.13383570  0.54474012  0.60158902     0.02000
C1261       C  0.18698413  0.57454385  0.59454208     0.02000
C1262       C  0.20787032  0.62438925  0.59260836    -0.18500
H1263       H  0.24529569  0.64571820  0.58817813     0.04000
H1264       H  0.07319321  0.54768729  0.60802417     0.04000
C1265       C  0.45461458  0.60346296  0.61023681     0.02000
C1266       C  0.41590631  0.55781937  0.59952895     0.02000
C1267       C  0.38163988  0.56152453  0.58598388    -0.18500
C1268       C  0.36986985  0.59719354  0.58801051     0.02000
C1269       C  0.40828523  0.64243677  0.59898716     0.02000
C1270       C  0.44377074  0.63970901  0.61198879    -0.18500
H1271       H  0.46620992  0.67060547  0.62344144     0.04000
H1272       H  0.35975729  0.53115741  0.57433706     0.04000
C1273       C  0.26939566  0.72414692  0.52676334    -0.00400
C1274       C  0.30816116  0.76346845  0.51490241    -0.12300
C1275       C  0.30730931  0.76942089  0.49003650     0.01800
C1276       C  0.26859797  0.73337592  0.47556230    -0.00500
C1277       C  0.22699617  0.69754524  0.48765793    -0.12200
C1278       C  0.22838598  0.69097623  0.51267481     0.01700
H1279       H  0.33694200  0.79242435  0.52568788     0.14700
H1280       H  0.19640133  0.67021958  0.47717771     0.14700
C1281       C  0.18658121  0.65070460  0.52402955     0.36300
C1282       C  0.34714529  0.81320324  0.47989653     0.36200
N1283       N  0.15321201  0.61840165  0.53318310    -0.44000
N1284       N  0.37918999  0.84811046  0.47178449    -0.44000
C1285       C  0.38394901  0.73938135  0.53835435    -0.00400
C1286       C  0.34809805  0.69960864  0.52592983    -0.12300
C1287       C  0.34833395  0.69759422  0.50050624     0.01800
C1288       C  0.38717767  0.73272117  0.48648742    -0.00500
C1289       C  0.41724957  0.77686183  0.49843289    -0.12200
C1290       C  0.41264005  0.78099570  0.52397653     0.01700
H1291       H  0.31960087  0.67045495  0.53624230     0.14700
H1292       H  0.44321317  0.80775855  0.48807559     0.14700
C1293       C  0.43949746  0.82724149  0.53544832     0.36300
C1294       C  0.30295747  0.66929680  0.48990186     0.36200
N1295       N  0.45973981  0.86471933  0.54434665    -0.44000
N1296       N  0.26446874  0.64846698  0.48297129    -0.44000
C1297       C  0.26860089  0.58200834  0.52122198    -0.00400
C1298       C  0.22518409  0.56278782  0.50845991    -0.12300
C1299       C  0.22198689  0.55373008  0.48319561     0.01800
C1300       C  0.26401102  0.56934666  0.46952253    -0.00500
C1301       C  0.30532937  0.58231331  0.48219509    -0.12200
C1302       C  0.30778910  0.58848191  0.50761657     0.01700
H1303       H  0.19283509  0.55182284  0.51865881     0.14700
H1304       H  0.33763645  0.59268745  0.47215335     0.14700
C1305       C  0.35148717  0.60231790  0.51933885     0.36300
C1306       C  0.17687495  0.53430787  0.47132257     0.36200
N1307       N  0.38686431  0.61365694  0.52842850    -0.44000
N1308       N  0.14082727  0.51879437  0.46170814    -0.44000
C1309       C  0.04023399  0.96643629  0.67429622    -0.00400
C1310       C  0.07765828  0.00185524  0.68942693    -0.12300
C1311       C  0.07858771  0.99652020  0.71456734     0.01800
C1312       C  0.03908863  0.95731678  0.72607680    -0.00500
C1313       C  0.00289005  0.92061032  0.71131232    -0.12200
C1314       C  0.00438681  0.92370428  0.68596087     0.01700
H1315       H  0.10855607  0.52438941  0.68288612     0.14700
H1316       H  0.47456672  0.88836767  0.71955495     0.14700
C1317       C  0.47676465  0.88023706  0.67252870     0.36300
C1318       C  0.11469233  0.51894446  0.72966636     0.36200
N1319       N  0.45409731  0.84425713  0.66212893    -0.44000
N1320       N  0.14879060  0.54314174  0.74117179    -0.44000
C1321       C  0.05448672  0.59665156  0.72653104    -0.00400
C1322       C  0.08312694  0.59025078  0.71044524    -0.12300
C1323       C  0.08072116  0.59277144  0.68514229     0.01800
C1324       C  0.04584809  0.59720757  0.67531012    -0.00500
C1325       C  0.02251452  0.61034719  0.69198829    -0.12200
C1326       C  0.02953153  0.61347088  0.71697855     0.01700
H1327       H  0.10947395  0.58625649  0.71775438     0.14700
H1328       H  0.00262545  0.62320657  0.68498019     0.14700
C1329       C  0.01553387  0.63879499  0.73198823     0.36300
C1330       C  0.11956927  0.59971380  0.67011124     0.36200
N1331       N  0.00555886  0.66024695  0.74388410    -0.44000
N1332       N  0.15129812  0.60611819  0.65832597    -0.44000
C1333       C  0.43776244  0.97405344  0.66417766    -0.00400
C1334       C  0.44586301  0.01215424  0.67856687    -0.12300
C1335       C  0.43005289  0.00567490  0.70273236     0.01800
C1336       C  0.42199647  0.96742222  0.71565232    -0.00500
C1337       C  0.41801544  0.93011129  0.70228443    -0.12200
C1338       C  0.42138083  0.93133401  0.67666983     0.01700
H1339       H  0.44845926  0.04067699  0.66911107     0.14700
H1340       H  0.40766836  0.89827494  0.71155044     0.14700
C1341       C  0.39365225  0.88574679  0.66418247     0.36300
C1342       C  0.41066216  0.03116064  0.71186793     0.36200
N1343       N  0.36942967  0.84870713  0.65492801    -0.44000
N1344       N  0.40776290  0.56171619  0.71870143    -0.44000
C1345       C  0.45225879  0.56476772  0.19771620    -0.00400
C1346       C  0.41311350  0.52381720  0.18674586    -0.12300
C1347       C  0.40471024  0.52099856  0.16194173     0.01800
C1348       C  0.43979478  0.55640798  0.14658960    -0.00500
C1349       C  0.47817264  0.59847409  0.15702055    -0.12200
C1350       C  0.48260697  0.60414196  0.18228257     0.01700
H1351       H  0.38341379  0.49913864  0.19828913     0.14700
H1352       H  0.50356370  0.62770273  0.14553331     0.14700
C1353       C  0.50993918  0.65246051  0.19175684     0.36300
C1354       C  0.34925592  0.97902976  0.15235018     0.36200
N1355       N  0.02980986  0.69148201  0.19806174    -0.44000
N1356       N  0.31057995  0.95131879  0.14572797    -0.44000
C1357       C  0.44178565  0.93700220  0.19814100    -0.00400
C1358       C  0.47360045  0.92992965  0.18506676    -0.12300
C1359       C  0.46771966  0.91688507  0.16047152     0.01800
C1360       C  0.43451044  0.91794018  0.14666236    -0.00500
C1361       C  0.40053651  0.92172135  0.15910031    -0.12200
C1362       C  0.40191008  0.92770131  0.18462518     0.01700
H1363       H  0.49739695  0.92532074  0.19523442     0.14700
H1364       H  0.37146665  0.91723755  0.14897840     0.14700
C1365       C  0.35737840  0.91288057  0.19687643     0.36300
C1366       C  0.49195452  0.89683233  0.15029488     0.36200
N1367       N  0.32173496  0.90083062  0.20665907    -0.44000
N1368       N  0.51046245  0.87978291  0.14221702    -0.44000
C1369       C  0.05427525  0.55477850  0.20395847    -0.00400
C1370       C  0.05483661  0.52114979  0.18886050    -0.12300
C1371       C  0.06518414  0.52765905  0.16383714     0.01800
C1372       C  0.06708296  0.56409242  0.15205601    -0.00500
C1373       C  0.06777477  0.59854898  0.16669596    -0.12200
C1374       C  0.06417363  0.59556693  0.19218277     0.01700
H1375       H  0.05883885  0.49597261  0.19762523     0.14700
H1376       H  0.07432113  0.62972628  0.15827503     0.14700
C1377       C  0.08346841  0.63943763  0.20576374     0.36300
C1378       C  0.08275218  0.50265537  0.15180003     0.36200
N1379       N  0.10060539  0.67525321  0.21617612    -0.44000
N1380       N  0.09873824  0.48421965  0.14229279    -0.44000
C1381       C  0.22732297  0.95467371  0.56297488    -0.00400
C1382       C  0.26428131  0.95896066  0.54787606    -0.12300
C1383       C  0.25764986  0.95032341  0.52280653     0.01800
C1384       C  0.21088156  0.92673671  0.51344315    -0.00500
C1385       C  0.17265642  0.90793741  0.53039097    -0.12200
C1386       C  0.18093817  0.92051068  0.55520795     0.01700
H1387       H  0.29873421  0.47551252  0.55484555     0.14700
H1388       H  0.13685338  0.88335326  0.52424583     0.14700
C1389       C  0.14435961  0.89397414  0.57319155     0.36300
C1390       C  0.29921632  0.96549638  0.50768980     0.36200
N1391       N  0.11588224  0.87171728  0.58796788    -0.44000
N1392       N  0.33260216  0.97738245  0.49573296    -0.44000
C1393       C  0.18692318  0.79823519  0.51577689    -0.00400
C1394       C  0.21640610  0.83735941  0.53157831    -0.12300
C1395       C  0.21474252  0.83150127  0.55664958     0.01800
C1396       C  0.19261914  0.78616055  0.56520323    -0.00500
C1397       C  0.15216485  0.74994331  0.55176673    -0.12200
C1398       C  0.15212639  0.75416731  0.52642416     0.01700
H1399       H  0.24245688  0.87150409  0.52437603     0.14700
H1400       H  0.13092476  0.71432289  0.55850943     0.14700
C1401       C  0.12560909  0.71091731  0.51200509     0.36300
C1402       C  0.23864346  0.87053160  0.57369625     0.36200
N1403       N  0.10598353  0.67601150  0.50058085    -0.44000
N1404       N  0.25606742  0.90003044  0.58856244    -0.44000
C1405       C  0.03528761  0.78448789  0.55133724    -0.00400
C1406       C  0.03939711  0.74964285  0.53981979    -0.12300
C1407       C  0.04053191  0.74620137  0.51450631     0.01800
C1408       C  0.04845360  0.78326372  0.50028145    -0.00500
C1409       C  0.05135247  0.82136034  0.51166814    -0.12200
C1410       C  0.04713747  0.82358634  0.53676087     0.01700
H1411       H  0.52961653  0.71768588  0.54908998     0.14700
H1412       H  0.05999376  0.85134970  0.50108516     0.14700
C1413       C  0.05399742  0.86659520  0.54615478     0.36300
C1414       C  0.02732214  0.70178249  0.50332591     0.36200
N1415       N  0.06081230  0.90200237  0.55311722    -0.44000
N1416       N  0.01558317  0.66614081  0.49399444    -0.44000
C1417       C  0.26766024  0.57608501  0.30099280    -0.00400
C1418       C  0.23605792  0.58182433  0.31506632    -0.12300
C1419       C  0.24181436  0.58898686  0.34034245     0.01800
C1420       C  0.28344492  0.59697409  0.35146503    -0.00500
C1421       C  0.31978852  0.60202181  0.33557665    -0.12200
C1422       C  0.31361696  0.59970891  0.31010927     0.01700
H1423       H  0.20253009  0.57191659  0.30736801     0.14700
H1424       H  0.35467905  0.61541908  0.34270613     0.14700
C1425       C  0.34969920  0.63516427  0.29437141     0.36300
C1426       C  0.20475859  0.58890827  0.35372525     0.36200
N1427       N  0.37437385  0.66442591  0.28069579    -0.44000
N1428       N  0.17465591  0.58865465  0.36409230    -0.44000
C1429       C  0.20231631  0.93453729  0.34045398    -0.00400
C1430       C  0.22344465  0.91340728  0.34853239    -0.12300
C1431       C  0.22318227  0.90699933  0.37320565     0.01800
C1432       C  0.21543089  0.93280344  0.39060321    -0.00500
C1433       C  0.19378606  0.95426773  0.38264962    -0.12200
C1434       C  0.18406701  0.95215925  0.35787103     0.01700
H1435       H  0.23434439  0.89684452  0.33556050     0.14700
H1436       H  0.18155010  0.96943706  0.39568222     0.14700
C1437       C  0.15568525  0.96823583  0.35008766     0.36300
C1438       C  0.20206413  0.85966831  0.37877192     0.36200
N1439       N  0.13186224  0.48038682  0.34675453    -0.44000
N1440       N  0.17854258  0.82046527  0.38344819    -0.44000
C1441       C  0.29789682  0.73569825  0.35440591    -0.00400
C1442       C  0.32664631  0.78276428  0.34759828    -0.12300
C1443       C  0.33327709  0.79369062  0.32290655     0.01800
C1444       C  0.30208651  0.75604128  0.30518492    -0.00500
C1445       C  0.28612584  0.71052190  0.31176814    -0.12200
C1446       C  0.28909496  0.70240129  0.33606572     0.01700
H1447       H  0.34269703  0.81077200  0.36142207     0.14700
H1448       H  0.26726464  0.68097334  0.29892671     0.14700
C1449       C  0.32290399  0.69277710  0.33751035     0.36300
C1450       C  0.35856071  0.84389632  0.31918279     0.36200
N1451       N  0.35565954  0.69205622  0.33825029    -0.44000
N1452       N  0.37898490  0.88457115  0.31791307    -0.44000
C1453       C  0.22960417  0.78685616  0.39772492    -0.00400
C1454       C  0.19337643  0.74458988  0.38615314    -0.12300
C1455       C  0.18302459  0.74332702  0.36164031     0.01800
C1456       C  0.21224946  0.78422688  0.34688962    -0.00500
C1457       C  0.25509536  0.82276836  0.35773502    -0.12200
C1458       C  0.26441570  0.82382181  0.38271099     0.01700
H1459       H  0.16888117  0.71389691  0.39707357     0.14700
H1460       H  0.28207588  0.85145762  0.34643379     0.14700
C1461       C  0.30776146  0.86463670  0.39283795     0.36300
C1462       C  0.14762564  0.69686786  0.35145409     0.36200
N1463       N  0.34275377  0.89713633  0.40098641    -0.44000
N1464       N  0.12051737  0.65880580  0.34389065    -0.44000
C1465       C  0.45132642  0.73779924  0.31240210    -0.00400
C1466       C  0.44532512  0.77219627  0.32266311    -0.12300
C1467       C  0.44428783  0.77849309  0.34785006     0.01800
C1468       C  0.43974222  0.74456580  0.36380619    -0.00500
C1469       C  0.43918701  0.70629378  0.35353866    -0.12200
C1470       C  0.44186969  0.70089205  0.32814254     0.01700
H1471       H  0.44874253  0.79899926  0.31132996     0.14700
H1472       H  0.43371876  0.67887154  0.36520071     0.14700
C1473       C  0.44543821  0.66300210  0.31968586     0.36300
C1474       C  0.44667508  0.81980537  0.35647462     0.36200
N1475       N  0.44764506  0.63184642  0.31371846    -0.44000
N1476       N  0.44875449  0.85320977  0.36288939    -0.44000
C1477       C  0.10826510  0.81093780  0.33006645    -0.00400
C1478       C  0.10797154  0.84588603  0.34379240    -0.12300
C1479       C  0.09322958  0.83919428  0.36816650     0.01800
C1480       C  0.08668128  0.80113995  0.38097639    -0.00500
C1481       C  0.08733300  0.76612032  0.36764922    -0.12200
C1482       C  0.09965416  0.77140839  0.34283285     0.01700
H1483       H  0.10783935  0.87262523  0.33404167     0.14700
H1484       H  0.08087860  0.73568126  0.37690355     0.14700
C1485       C  0.08730798  0.72897054  0.32980023     0.36300
C1486       C  0.08009394  0.86902167  0.37892384     0.36200
N1487       N  0.07426887  0.69352940  0.31987662    -0.44000
N1488       N  0.06924131  0.89273792  0.38739226    -0.44000
C1489       C  0.35051951  0.62574786  0.17932426    -0.00400
C1490       C  0.32254817  0.57989930  0.18806251    -0.12300
C1491       C  0.32479080  0.57177857  0.21258548     0.01800
C1492       C  0.36137177  0.61082656  0.22792432    -0.00500
C1493       C  0.38257599  0.65648404  0.21924311    -0.12200
C1494       C  0.36819903  0.66213391  0.19701222     0.01700
H1495       H  0.30084299  0.55033785  0.17549539     0.14700
H1496       H  0.40817548  0.68729221  0.23021366     0.14700
C1497       C  0.33701478  0.67571834  0.20232990     0.36300
C1498       C  0.30265041  0.52233582  0.21744087     0.36200
N1499       N  0.31084510  0.68376452  0.21009159    -0.44000
N1500       N  0.28456301  0.48233891  0.22027362    -0.44000
C1501       C  0.37887262  0.77340839  0.18074373    -0.00400
C1502       C  0.33900233  0.77075279  0.19053639    -0.12300
C1503       C  0.33429967  0.77621770  0.21551395     0.01800
C1504       C  0.37418995  0.79071186  0.23068851    -0.00500
C1505       C  0.40476876  0.77810102  0.22198680    -0.12200
C1506       C  0.41187955  0.77607754  0.19693445     0.01700
H1507       H  0.31222124  0.76645171  0.17849799     0.14700
H1508       H  0.42793552  0.77652357  0.23427985     0.14700
C1509       C  0.45057707  0.77291230  0.18880865     0.36300
C1510       C  0.29811324  0.78407892  0.22179942     0.36200
N1511       N  0.48117079  0.76958971  0.18251600    -0.44000
N1512       N  0.26846487  0.79039097  0.22473701    -0.44000
C1513       C  0.22451621  0.63753798  0.17713986    -0.00400
C1514       C  0.22290098  0.60004309  0.18745230    -0.12300
C1515       C  0.21659861  0.59258095  0.21254912     0.01800
C1516       C  0.20747176  0.62052934  0.22806466    -0.00500
C1517       C  0.21884478  0.66353378  0.21802182    -0.12200
C1518       C  0.22235616  0.66948155  0.19274488     0.01700
H1519       H  0.22792399  0.57705322  0.17599582     0.14700
H1520       H  0.21166100  0.68577928  0.22840093     0.14700
C1521       C  0.21799615  0.70525752  0.18310881     0.36300
C1522       C  0.21696685  0.55409950  0.22129921     0.36200
N1523       N  0.21457350  0.73383372  0.17524287    -0.44000
N1524       N  0.21631440  0.52220386  0.22771505    -0.44000
C1525       C  0.42384208  0.55099053  0.97515869    -0.00400
C1526       C  0.38709101  0.51354153  0.98953252    -0.12300
C1527       C  0.39364547  0.51406841  0.01467122     0.01800
C1528       C  0.43978657  0.54681890  0.02458455    -0.00500
C1529       C  0.47812061  0.57448523  0.00831611    -0.12200
C1530       C  0.47025782  0.57375182  0.98358385     0.01700
H1531       H  0.35094364  0.49157253  0.98257771     0.14700
H1532       H  0.51412586  0.59709189  0.01484372     0.14700
C1533       C  0.50909790  0.59525165  0.96660151     0.36300
C1534       C  0.35275616  0.48092872  0.02948750     0.36200
N1535       N  0.53905912  0.61104741  0.95207754    -0.44000
N1536       N  0.31999322  0.45434389  0.04136265    -0.44000
C1537       C  0.34232818  0.61161679  0.00417591    -0.00400
C1538       C  0.36034549  0.65506714  0.01482881    -0.12300
C1539       C  0.35889002  0.65903794  0.03980964     0.01800
C1540       C  0.34749821  0.62259929  0.05541120    -0.00500
C1541       C  0.32388551  0.57699538  0.04501508    -0.12200
C1542       C  0.31935857  0.57111911  0.01947898     0.01700
H1543       H  0.37364226  0.68539268  0.00347505     0.14700
H1544       H  0.30892517  0.54657292  0.05649393     0.14700
C1545       C  0.29392227  0.52389360  0.00896787     0.36300
C1546       C  0.34420359  0.68732512  0.04750617     0.36200
N1547       N  0.27242628  0.48605486  0.00043095    -0.44000
N1548       N  0.32657566  0.70596081  0.05300240    -0.44000
C1549       C  0.45444720  0.91241799  0.97056950    -0.00400
C1550       C  0.49330874  0.91988720  0.98451802    -0.12300
C1551       C  0.49288082  0.92525137  0.01010040     0.01800
C1552       C  0.46116485  0.93464527  0.02099664    -0.00500
C1553       C  0.43512982  0.94326566  0.00526386    -0.12200
C1554       C  0.43493655  0.93591107  0.98001848     0.01700
H1555       H  0.51190996  0.90465441  0.97837228     0.14700
H1556       H  0.41138113  0.95120119  0.01282938     0.14700
C1557       C  0.40671825  0.94305138  0.96455386     0.36300
C1558       C  0.51477499  0.90826067  0.02432647     0.36200
N1559       N  0.38415601  0.94733944  0.95113178    -0.44000
N1560       N  0.03008403  0.89343239  0.03606500    -0.44000
C1561       C  0.37469140  0.77372201  0.01152788    -0.00400
C1562       C  0.41447268  0.77631043  0.02083999    -0.12300
C1563       C  0.42713652  0.78674169  0.04566840     0.01800
C1564       C  0.40042816  0.79606076  0.06193916    -0.00500
C1565       C  0.36825403  0.80378756  0.05161365    -0.12200
C1566       C  0.35200649  0.78861961  0.02777012     0.01700
H1567       H  0.43652868  0.77127277  0.00846658     0.14700
H1568       H  0.34975635  0.81443165  0.06330871     0.14700
C1569       C  0.31843654  0.79765468  0.01893301     0.36300
C1570       C  0.46322143  0.78148282  0.05442737     0.36200
N1571       N  0.29209953  0.80530760  0.01166469    -0.44000
N1572       N  0.49175569  0.77676562  0.06157260    -0.44000
C1573       C  0.08563856  0.57116706  0.02793798    -0.00400
C1574       C  0.09181110  0.61050123  0.01773720    -0.12300
C1575       C  0.10081724  0.61861722  0.99289277     0.01800
C1576       C  0.10304563  0.58552856  0.97706219    -0.00500
C1577       C  0.08390362  0.54061099  0.98703219    -0.12200
C1578       C  0.08452007  0.53722486  0.01236128     0.01700
H1579       H  0.09163374  0.63634191  0.02943982     0.14700
H1580       H  0.08514693  0.51470696  0.97614821     0.14700
C1581       C  0.09938300  0.50890096  0.02153354     0.36300
C1582       C  0.11526217  0.66516789  0.98613576     0.36200
N1583       N  0.11579095  0.99004781  0.02515376    -0.44000
N1584       N  0.12697119  0.70291087  0.98148936    -0.44000
C1585       C  0.25382156  0.64694942  0.00319084    -0.00400
C1586       C  0.25322195  0.68264529  0.01641429    -0.12300
C1587       C  0.23777122  0.67717484  0.04095000     0.01800
C1588       C  0.23126129  0.63969744  0.05442424    -0.00500
C1589       C  0.23108348  0.60372840  0.04131933    -0.12200
C1590       C  0.24192403  0.60681576  0.01642963     0.01700
H1591       H  0.25540269  0.70999253  0.00615079     0.14700
H1592       H  0.22327893  0.57288474  0.05072169     0.14700
C1593       C  0.22693354  0.56305031  0.00374129     0.36300
C1594       C  0.23295192  0.71253016  0.05233360     0.36200
N1595       N  0.21258068  0.52764368  0.99338917    -0.44000
N1596       N  0.22911141  0.74088756  0.06146917    -0.44000
C1597       C  0.26927669  0.91660976  0.69922433    -0.00400
C1598       C  0.26978348  0.94872994  0.68412914    -0.12300
C1599       C  0.27620529  0.94842396  0.65910162     0.01800
C1600       C  0.28386320  0.91543390  0.64778303    -0.00500
C1601       C  0.27397894  0.87750153  0.66274236    -0.12200
C1602       C  0.27207125  0.88091560  0.68825312     0.01700
H1603       H  0.26663733  0.97600814  0.69210135     0.14700
H1604       H  0.27879300  0.85102827  0.65549073     0.14700
C1605       C  0.27965449  0.85163343  0.70260162     0.36300
C1606       C  0.28064759  0.98701482  0.64698410     0.36200
N1607       N  0.28672955  0.82884112  0.71407643    -0.44000
N1608       N  0.28529254  0.01974782  0.63866700    -0.44000
C1609       C  0.12554728  0.77149372  0.69277374    -0.00400
C1610       C  0.16252259  0.77269811  0.68049209    -0.12300
C1611       C  0.15926151  0.75913872  0.65604479     0.01800
C1612       C  0.11626105  0.74257439  0.64278446    -0.00500
C1613       C  0.08412882  0.75141163  0.65415857    -0.12200
C1614       C  0.08535384  0.75997396  0.67934882     0.01700
H1615       H  0.19289364  0.78040929  0.69072379     0.14700
H1616       H  0.05246490  0.74250606  0.64474187     0.14700
C1617       C  0.04432560  0.75552743  0.69068625     0.36300
C1618       C  0.19353703  0.74897225  0.64920317     0.36200
N1619       N  0.01092458  0.75101732  0.69968036    -0.44000
N1620       N  0.22219114  0.74140877  0.64582401    -0.44000
C1621       C  0.14551540  0.90548464  0.68750449    -0.00400
C1622       C  0.17407514  0.95082751  0.67825627    -0.12300
C1623       C  0.16881353  0.95729860  0.65386574     0.01800
C1624       C  0.12803350  0.91782306  0.64062045    -0.00500
C1625       C  0.10677598  0.87245525  0.64985019    -0.12200
C1626       C  0.12590855  0.86770290  0.67040120     0.01700
H1627       H  0.19552700  0.98112953  0.69042977     0.14700
H1628       H  0.07931479  0.84108949  0.63986817     0.14700
C1629       C  0.15837308  0.85771829  0.66056004     0.36300
C1630       C  0.19116680  0.00639978  0.64816221     0.36200
N1631       N  0.18243866  0.85106520  0.64876816    -0.44000
N1632       N  0.20947741  0.04628351  0.64485473    -0.44000
C1633       C  0.05034991  0.61652228  0.89628912    -0.00400
C1634       C  0.08732787  0.61785391  0.88273878    -0.12300
C1635       C  0.08212059  0.60765268  0.85764914     0.01800
C1636       C  0.03717956  0.58908502  0.84689051    -0.00500
C1637       C  0.99802688  0.57539162  0.86257050    -0.12200
C1638       C  0.00453665  0.58582286  0.88738778     0.01700
H1639       H  0.12283085  0.63605086  0.89017028     0.14700
H1640       H  0.46246631  0.55278372  0.85555448     0.14700
C1641       C  0.96702048  0.55766386  0.90447239     0.36300
C1642       C  0.12311738  0.61708984  0.84374284     0.36200
N1643       N  0.44017480  0.53636944  0.91924012    -0.44000
N1644       N  0.15590427  0.62445405  0.83259733    -0.44000
C1645       C  0.10516586  0.75761990  0.86141819    -0.00400
C1646       C  0.14486944  0.76623735  0.84810039    -0.12300
C1647       C  0.14481412  0.76593380  0.82282434     0.01800
C1648       C  0.10711674  0.76295283  0.81066166    -0.00500
C1649       C  0.06654070  0.75230785  0.82385196    -0.12200
C1650       C  0.06421392  0.74694729  0.84880144     0.01700
H1651       H  0.17371467  0.76845940  0.85743342     0.14700
H1652       H  0.03644201  0.74773230  0.81460984     0.14700
C1653       C  0.01824482  0.72576014  0.86090591     0.36300
C1654       C  0.18288925  0.76693168  0.81006769     0.36200
N1655       N  0.98143613  0.70742940  0.87068448    -0.44000
N1656       N  0.21283569  0.76660286  0.79992042    -0.44000
C1657       C  0.35741762  0.95094518  0.88745865    -0.00400
C1658       C  0.36552118  0.91860965  0.87653918    -0.12300
C1659       C  0.36829232  0.91563312  0.85135036     0.01800
C1660       C  0.37706908  0.95284796  0.83686191    -0.00500
C1661       C  0.37792063  0.99008596  0.84805847    -0.12200
C1662       C  0.36887980  0.99008903  0.87298559     0.01700
H1663       H  0.35908316  0.88907259  0.88652056     0.14700
H1664       H  0.38650773  0.01991389  0.83737852     0.14700
C1665       C  0.36549071  0.02792026  0.88173416     0.36300
C1666       C  0.35445868  0.87072623  0.84062088     0.36200
N1667       N  0.36345882  0.05940140  0.88718875    -0.44000
N1668       N  0.34166877  0.83439038  0.83182836    -0.44000
C1669       C  0.21191352  0.91509266  0.87476966    -0.00400
C1670       C  0.24494305  0.95848715  0.86267792    -0.12300
C1671       C  0.25160233  0.95877472  0.83708509     0.01800
C1672       C  0.22178599  0.91637571  0.82332103    -0.00500
C1673       C  0.18052853  0.87910820  0.83527809    -0.12200
C1674       C  0.17556863  0.87970765  0.86068152     0.01700
H1675       H  0.27107274  0.98920700  0.87342527     0.14700
H1676       H  0.15165466  0.85057162  0.82473058     0.14700
C1677       C  0.13198623  0.84750049  0.87312401     0.36300
C1678       C  0.29009755  0.00170733  0.82587379     0.36200
N1679       N  0.09612373  0.82435188  0.88351680    -0.44000
N1680       N  0.32087176  0.03646882  0.81704140    -0.44000
C1681       C  0.00678805  0.94106313  0.90178586    -0.00400
C1682       C  0.97087667  0.90295682  0.88663162    -0.12300
C1683       C  0.97196216  0.90859727  0.86133583     0.01800
C1684       C  0.00333921  0.95407366  0.85158486    -0.00500
C1685       C  0.02668538  0.99281142  0.86839572    -0.12200
C1686       C  0.02425247  0.98579480  0.89360199     0.01700
H1687       H  0.95379127  0.86683510  0.89188035     0.14700
H1688       H  0.03465067  0.51865041  0.86006555     0.14700
C1689       C  0.04343197  0.02343511  0.91135983     0.36300
C1690       C  0.94891191  0.86652350  0.84598560     0.36200
N1691       N  0.05610811  0.05101698  0.92706231    -0.44000
N1692       N  0.42579084  0.82998769  0.83487011    -0.44000
C1693       C  0.10613495  0.90779542  0.81101439    -0.00400
C1694       C  0.06851516  0.86691162  0.82241103    -0.12300
C1695       C  0.06426394  0.86544440  0.84774224     0.01800
C1696       C  0.10063412  0.90339405  0.86235528    -0.00500
C1697       C  0.13769534  0.94452635  0.85090234    -0.12200
C1698       C  0.13929316  0.94786961  0.82569481     0.01700
H1699       H  0.04247297  0.83605934  0.81159687     0.14700
H1700       H  0.16273893  0.97566820  0.86188633     0.14700
C1701       C  0.17454801  0.99352025  0.81542266     0.36300
C1702       C  0.02042993  0.82657381  0.85856067     0.36200
N1703       N  0.20247809  0.03002428  0.80708344    -0.44000
N1704       N  0.98522318  0.79639070  0.86760790    -0.44000
C1705       C  0.54277606  0.43243394  0.91028187     0.86200
C1706       C  0.59004763  0.46800648  0.92414259    -0.54000
C1707       C  0.62170427  0.45483960  0.92530676     0.09100
C1708       C  0.59462288  0.40018243  0.91381318     0.20100
C1709       C  0.56100577  0.42567486  0.88682946    -0.54700
C1710       C  0.58468890  0.40665823  0.88746221     0.09200
C1711       C  0.52180750  0.38955889  0.92555387    -0.54300
C1712       C  0.54092801  0.36535043  0.92567207     0.09800
H1713       H  0.58859132  0.48785473  0.93897110     0.14300
H1714       H  0.61541196  0.38515925  0.91399748     0.00100
H1715       H  0.55706464  0.43775570  0.86970518     0.14600
H1716       H  0.51426850  0.39661788  0.94328391     0.14400
C1717       C  0.81141756  0.42716075  0.90441954     0.86200
C1718       C  0.79399682  0.38343067  0.91860846    -0.54000
C1719       C  0.74764568  0.35889305  0.92721487     0.09100
C1720       C  0.72520748  0.38977232  0.92083668     0.20100
C1721       C  0.77365411  0.40748768  0.88520964    -0.54700
C1722       C  0.73087520  0.39573642  0.89265963     0.09200
C1723       C  0.80611960  0.45892717  0.92257947    -0.54300
C1724       C  0.76138183  0.44488238  0.92960285     0.09800
H1725       H  0.81579728  0.37032346  0.91971348     0.14300
H1726       H  0.68760894  0.37176392  0.92707915     0.00100
H1727       H  0.78257753  0.41045192  0.86589155     0.14600
H1728       H  0.82985193  0.47011999  0.93766544     0.14400
C1729       C  0.56218487  0.16448539  0.90692514     0.86200
C1730       C  0.52720404  0.17408509  0.91892452    -0.54000
C1731       C  0.54544607  0.22124021  0.92410668     0.09100
C1732       C  0.60242416  0.25482581  0.91349078     0.20100
C1733       C  0.57442650  0.19099425  0.88419159    -0.54700
C1734       C  0.59589880  0.23696999  0.88636296     0.09200
C1735       C  0.60681436  0.19025415  0.92245884    -0.54300
C1736       C  0.63534646  0.23863215  0.92356310     0.09800
H1737       H  0.48936628  0.14682462  0.91794716     0.14300
H1738       H  0.62074805  0.29343404  0.91559944     0.00100
H1739       H  0.56411873  0.17342223  0.86642097     0.14600
H1740       H  0.61725424  0.16866138  0.92840247     0.14400
O1741       O  0.66182917  0.43315174  0.72905576    -0.82100
C1742       C  0.61931175  0.28535734  0.78676854     0.97300
O1743       O  0.59696763  0.30263145  0.78095121    -0.71200
O1744       O  0.58983977  0.37038119  0.77116150    -0.74800
Al1745     Al  0.60392975  0.33213143  0.75147306     1.49000
C1746       C  0.61807612  0.40410522  0.78558041     0.92500
O1747       O  0.73873558  0.44354353  0.78216009    -0.81000
O1748       O  0.75774414  0.39588485  0.74181666    -0.74600
Al1749     Al  0.69789851  0.43375726  0.75538140     1.90100
O1750       O  0.71810674  0.37192809  0.78932204    -0.73600
O1751       O  0.68085245  0.31777907  0.72581823    -0.73500
O1752       O  0.65068330  0.28871104  0.77264711    -0.79100
O1753       O  0.60418397  0.28521008  0.73184172    -0.77300
O1754       O  0.66724424  0.37070202  0.75469880    -1.13500
O1755       O  0.60789259  0.35798711  0.72104123    -0.72700
C1756       C  0.63793166  0.39938028  0.71374404     0.98000
C1757       C  0.72856210  0.41168442  0.79716941     0.94400
Al1758     Al  0.70011271  0.34570486  0.75723987     1.55600
O1759       O  0.66061617  0.43291213  0.77964296    -0.77300
C1760       C  0.63817663  0.29260171  0.71819762     0.98600
C1761       C  0.75835457  0.42177985  0.72603039     0.93500
O1762       O  0.73920247  0.44275273  0.73081730    -0.82600
C1763       C  0.71215909  0.04517724  0.93478021     0.02000
C1764       C  0.67764652  0.49017925  0.93249283     0.02000
C1765       C  0.69989505  0.46504363  0.93340493    -0.18500
C1766       C  0.74990120  0.48397095  0.93397265     0.02000
C1767       C  0.78366330  0.03777804  0.93635483     0.02000
C1768       C  0.76212185  0.06360960  0.93536258    -0.18500
H1769       H  0.78606375  0.10134063  0.93479978     0.04000
H1770       H  0.67652437  0.42735543  0.93412633     0.04000
C1771       C  0.65086445  0.10534390  0.96292354     0.86200
C1772       C  0.65663909  0.07343241  0.94458791    -0.54000
C1773       C  0.70223925  0.08593522  0.93982459     0.09100
C1774       C  0.73991096  0.14114682  0.95019410     0.20100
C1775       C  0.68323927  0.11501599  0.98307507    -0.54700
C1776       C  0.72904339  0.13429871  0.97788128     0.09200
C1777       C  0.67546278  0.15241343  0.95112083    -0.54300
C1778       C  0.72185780  0.17473335  0.94350416     0.09800
H1779       H  0.63307291  0.05821543  0.92933599     0.14300
H1780       H  0.77809721  0.15776407  0.94570915     0.00100
H1781       H  0.67085857  0.10889147  0.00189054     0.14600
H1782       H  0.66035432  0.17165312  0.95288563     0.14400
C1783       C  0.91627398  0.36037857  0.96371431     0.86200
C1784       C  0.86739316  0.33987737  0.95262108    -0.54000
C1785       C  0.83517906  0.29068566  0.95175439     0.09100
C1786       C  0.86459897  0.26786423  0.96068072     0.20100
C1787       C  0.90326371  0.33553728  0.98701538    -0.54700
C1788       C  0.87901373  0.28909903  0.98704056     0.09200
C1789       C  0.93565142  0.34033404  0.94687986    -0.54300
C1790       C  0.91806906  0.29450737  0.94691928     0.09800
H1791       H  0.85962567  0.36331211  0.94569806     0.14300
H1792       H  0.84312208  0.22871571  0.96035452     0.00100
H1793       H  0.91129064  0.35483506  0.00393126     0.14600
H1794       H  0.94197500  0.35438506  0.92928141     0.14400
C1795       C  0.90835787  0.08020867  0.96381377     0.86200
C1796       C  0.94392201  0.12966404  0.95356493    -0.54000
C1797       C  0.92483878  0.15374576  0.94751786     0.09100
C1798       C  0.86716397  0.12209118  0.95554744     0.20100
C1799       C  0.89221583  0.09338735  0.98598929    -0.54700
C1800       C  0.86584218  0.10900681  0.98234454     0.09200
C1801       C  0.86616618  0.05382296  0.94589414    -0.54300
C1802       C  0.83920488  0.07070499  0.94300973     0.09800
H1803       H  0.98184762  0.14841360  0.95622333     0.14300
H1804       H  0.84923187  0.13993191  0.95406570     0.00100
H1805       H  0.89953669  0.08858585  0.00434562     0.14600
H1806       H  0.87266317  0.04039032  0.92985022     0.14400
O1807       O  0.86981375  0.14970226  0.13971067    -0.82100
C1808       C  0.74127600  0.14122201  0.07801506     0.97300
O1809       O  0.74789316  0.11213980  0.08648500    -0.71200
O1810       O  0.81043509  0.09598301  0.09630863    -0.74800
Al1811     Al  0.77285743  0.11135692  0.11575512     1.49000
C1812       C  0.84383491  0.12411110  0.08194957     0.92500
O1813       O  0.90575381  0.25244237  0.09764397    -0.81000
O1814       O  0.84366657  0.25645858  0.14038778    -0.74600
Al1815     Al  0.88030398  0.19776671  0.11828980     1.90100
O1816       O  0.84235648  0.25157982  0.09188191    -0.73600
O1817       O  0.75845294  0.18653032  0.14201079    -0.73500
O1818       O  0.75265863  0.17821963  0.09037166    -0.79100
O1819       O  0.72557819  0.11185241  0.13470775    -0.77300
O1820       O  0.81796209  0.17497287  0.11641500    -1.13500
O1821       O  0.79223582  0.10433596  0.14545785    -0.72700
C1822       C  0.83369290  0.12336605  0.15317751     0.98000
C1823       C  0.88483121  0.26676417  0.08633933     0.94400
Al1824     Al  0.80021860  0.21459973  0.11602913     1.55600
O1825       O  0.87655183  0.16538191  0.08925375    -0.77300
C1826       C  0.73266033  0.14477237  0.14873865     0.98600
C1827       C  0.87029137  0.25291728  0.15420871     0.93500
O1828       O  0.88861840  0.23159458  0.14726079    -0.82600
C1829       C  0.95590812  0.28085907  0.94034913     0.02000
C1830       C  0.50718025  0.31037054  0.93328137     0.02000
C1831       C  0.53065941  0.28656213  0.93050093    -0.18500
C1832       C  0.50978530  0.23675574  0.93257783     0.02000
C1833       C  0.95907364  0.20805647  0.94004395     0.02000
C1834       C  0.93600087  0.23209168  0.94356743    -0.18500
H1835       H  0.89959744  0.21193413  0.94984749     0.04000
H1836       H  0.56821223  0.30876783  0.92630468     0.04000
C1837       C  0.69247721  0.26190764  0.92585960     0.02000
C1838       C  0.72990043  0.30736846  0.93674975     0.02000
C1839       C  0.76755090  0.30663452  0.94912786    -0.18500
C1840       C  0.77995934  0.27172211  0.94650107     0.02000
C1841       C  0.74284877  0.22729771  0.93477637     0.02000
C1842       C  0.70747362  0.22971300  0.92143137    -0.18500
H1843       H  0.68490979  0.19917430  0.90995075     0.04000
H1844       H  0.79131104  0.33842630  0.95981053     0.04000
C1845       C  0.99528010  0.26332896  0.29951819     0.86200
C1846       C  0.50136646  0.23134252  0.28339477    -0.54000
C1847       C  0.54547310  0.24900379  0.27321146     0.09100
C1848       C  0.58218571  0.30597917  0.28050349     0.20100
C1849       C  0.53524506  0.28541450  0.31694176    -0.54700
C1850       C  0.57932715  0.30413384  0.30868619     0.09200
C1851       C  0.51177481  0.30787560  0.28360738    -0.54300
C1852       C  0.55816322  0.33420629  0.27471013     0.09800
H1853       H  0.97477521  0.19280791  0.28438894     0.14300
H1854       H  0.61912463  0.32411257  0.27325629     0.00100
H1855       H  0.52832409  0.28398967  0.33651210     0.14600
H1856       H  0.98847163  0.31852247  0.28325005     0.14400
C1857       C  0.75928542  0.25681030  0.29532014     0.86200
C1858       C  0.78323918  0.30271910  0.28292739    -0.54000
C1859       C  0.76557821  0.32765350  0.28432005     0.09100
C1860       C  0.71045868  0.29257143  0.29447252     0.20100
C1861       C  0.73514569  0.25508071  0.31841804    -0.54700
C1862       C  0.71526789  0.27787237  0.32013991     0.09200
C1863       C  0.71521489  0.22652452  0.27917336    -0.54300
C1864       C  0.68447349  0.24089430  0.27932615     0.09800
H1865       H  0.79319195  0.30011477  0.26504131     0.14300
H1866       H  0.69038661  0.30875766  0.29563338     0.00100
H1867       H  0.73313170  0.23450727  0.33346694     0.14600
H1868       H  0.71894093  0.21071162  0.26312809     0.14400
C1869       C  0.75217014  0.02718268  0.29506794     0.86200
C1870       C  0.70033753  0.50089467  0.28139147    -0.54000
C1871       C  0.67121840  0.45245656  0.28104558     0.09100
C1872       C  0.70401575  0.43455703  0.28998908     0.20100
C1873       C  0.74115330  0.50157412  0.31656152    -0.54700
C1874       C  0.71592812  0.45533936  0.31618217     0.09200
C1875       C  0.77459364  0.51227214  0.27707722    -0.54300
C1876       C  0.75885228  0.46583478  0.27681289     0.09800
H1877       H  0.70037608  0.02921463  0.27417452     0.14300
H1878       H  0.68443345  0.39557489  0.28950045     0.00100
H1879       H  0.75554685  0.51997121  0.33352293     0.14600
H1880       H  0.78868742  0.03148214  0.26190295     0.14400
O1881       O  0.58939295  0.26944474  0.46996545    -0.82100
C1882       C  0.71830064  0.42679069  0.41739794     0.97300
O1883       O  0.68966708  0.42727808  0.43228493    -0.71200
O1884       O  0.61411564  0.34698857  0.41728402    -0.74800
Al1885     Al  0.63726799  0.37110203  0.44802246     1.49000
C1886       C  0.59839969  0.30715655  0.40742414     0.92500
O1887       O  0.67398390  0.27752104  0.42506767    -0.81000
O1888       O  0.72628919  0.35004675  0.48194286    -0.74600
Al1889     Al  0.63397676  0.27940232  0.44717793     1.90100
O1890       O  0.74554115  0.33929032  0.43307808    -0.73600
O1891       O  0.73260853  0.42540966  0.47213923    -0.73500
O1892       O  0.74029200  0.40928916  0.42350549    -0.79100
O1893       O  0.65751509  0.39522423  0.47993847    -0.77300
O1894       O  0.66738576  0.34222145  0.44880641    -1.13500
O1895       O  0.57827297  0.32337014  0.46256511    -0.72700
C1896       C  0.57027131  0.29010653  0.47527151     0.98000
C1897       C  0.71802121  0.30209142  0.42063220     0.94400
Al1898     Al  0.73145157  0.37812942  0.45245623     1.55600
O1899       O  0.59776380  0.27512788  0.41884164    -0.77300
C1900       C  0.69989345  0.41629359  0.48721166     0.98600
C1901       C  0.69433171  0.30941385  0.48959286     0.93500
O1902       O  0.66471573  0.27655863  0.47503938    -0.82600
C1903       C  0.66051942  0.10122570  0.24038491     0.86200
C1904       C  0.63976725  0.05417021  0.25188519    -0.54000
C1905       C  0.59279903  0.02867671  0.25963645     0.09100
C1906       C  0.57130990  0.05929644  0.25398262     0.20100
C1907       C  0.62631979  0.08931636  0.22067096    -0.54700
C1908       C  0.58046432  0.06713555  0.22620345     0.09200
C1909       C  0.65337184  0.12930578  0.25980336    -0.54300
C1910       C  0.60755959  0.11412545  0.26495370     0.09800
H1911       H  0.66019778  0.04015389  0.25213864     0.14300
H1912       H  0.53334269  0.04072765  0.25938338     0.00100
H1913       H  0.63781174  0.09617880  0.20172691     0.14600
H1914       H  0.67642465  0.14091058  0.27540014     0.14400
C1915       C  0.89715557  0.33665127  0.24091141     0.86200
C1916       C  0.87310881  0.35023287  0.25871228    -0.54000
C1917       C  0.89060714  0.39659712  0.26163294     0.09100
C1918       C  0.94487065  0.42778990  0.24848464     0.20100
C1919       C  0.90892341  0.36545013  0.21891385    -0.54700
C1920       C  0.93232805  0.41165445  0.22157318     0.09200
C1921       C  0.94431018  0.35722936  0.25313041    -0.54300
C1922       C  0.97509633  0.40572108  0.25524937     0.09800
H1923       H  0.86385478  0.33047101  0.27497225     0.14300
H1924       H  0.96574605  0.46661975  0.25084873     0.00100
H1925       H  0.90078433  0.34990453  0.20074028     0.14600
H1926       H  0.95115262  0.33321973  0.26012466     0.14400
C1927       C  0.89365858  0.10165536  0.23825401     0.86200
C1928       C  0.94355919  0.14066314  0.24846362    -0.54000
C1929       C  0.97079476  0.12448563  0.25519329     0.09100
C1930       C  0.94170079  0.06750299  0.24746986     0.20100
C1931       C  0.90855914  0.08632519  0.21662388    -0.54700
C1932       C  0.93331001  0.06893866  0.22016075     0.09200
C1933       C  0.87093724  0.06349615  0.25711212    -0.54300
C1934       C  0.88764930  0.03750524  0.25942586     0.09800
H1935       H  0.95804322  0.17765595  0.24660450     0.14300
H1936       H  0.96081727  0.05085952  0.24934808     0.00100
H1937       H  0.90237383  0.09229723  0.19810040     0.14600
H1938       H  0.86067264  0.07141814  0.27397109     0.14400
O1939       O  0.92356893  0.45073542  0.05543929    -0.82100
C1940       C  0.55777812  0.05870227  0.12458825     0.97300
O1941       O  0.56390241  0.03257276  0.11049821    -0.71200
O1942       O  0.98680156  0.45615546  0.11452459    -0.74800
Al1943     Al  0.52117810  0.48968593  0.08801918     1.49000
C1944       C  0.94353459  0.43252240  0.12031093     0.92500
O1945       O  0.91345483  0.99621804  0.11314291    -0.81000
O1946       O  0.98856284  0.06937607  0.05626420    -0.74600
Al1947     Al  0.92158166  0.47729957  0.08528274     1.90100
O1948       O  0.96407462  0.07114955  0.10477264    -0.73600
O1949       O  0.56868439  0.08659262  0.06788405    -0.73500
O1950       O  0.53987115  0.07886110  0.11660181    -0.79100
O1951       O  0.55388981  0.01742207  0.05957540    -0.77300
O1952       O  0.98396878  0.00976066  0.08598787    -1.13500
O1953       O  0.97802399  0.43945911  0.06438758    -0.72700
C1954       C  0.95267393  0.44129605  0.04864226     0.98000
C1955       C  0.93553798  0.03905918  0.11945495     0.94400
Al1956     Al  0.51278518  0.07135857  0.08635731     1.55600
O1957       O  0.91291064  0.42789413  0.10574458    -0.77300
C1958       C  0.57066394  0.05858938  0.05333506     0.98600
C1959       C  0.94590178  0.04162283  0.04940960     0.93500
O1960       O  0.91412674  0.01209697  0.06405642    -0.82600
C1961       C  0.55862616  0.21228659  0.26675869     0.02000
C1962       C  0.52620930  0.15942801  0.26312808     0.02000
C1963       C  0.54768390  0.13451297  0.26586431    -0.18500
C1964       C  0.59713725  0.15381107  0.26808442     0.02000
C1965       C  0.63006780  0.20702883  0.27099155     0.02000
C1966       C  0.60859940  0.23223962  0.26877669    -0.18500
H1967       H  0.63241722  0.27014893  0.26980350     0.04000
H1968       H  0.52426480  0.09697168  0.26676059     0.04000
C1969       C  0.80019953  0.38109051  0.27593236     0.02000
C1970       C  0.85307408  0.41012419  0.26826993    -0.01600
C1971       C  0.87427901  0.45882579  0.26493972    -0.18500
C1972       C  0.85148102  0.48268107  0.26642153     0.02000
C1973       C  0.79784887  0.45321163  0.27287138     0.02000
C1974       C  0.77711407  0.40471005  0.27744497    -0.18500
H1975       H  0.73988185  0.38332700  0.28259729     0.04000
H1976       H  0.91163476  0.47972520  0.26036119     0.04000
C1977       C  0.61522533  0.43157916  0.27859960     0.02000
C1978       C  0.57729394  0.38711437  0.26714461     0.02000
C1979       C  0.54176925  0.39020683  0.25485949    -0.18500
C1980       C  0.53087393  0.42593654  0.25848367     0.02000
C1981       C  0.56892565  0.47028622  0.26960161     0.02000
C1982       C  0.60337283  0.46652951  0.28260686    -0.18500
H1983       H  0.62654408  0.49694168  0.29426954     0.04000
H1984       H  0.51817933  0.35955261  0.24340774     0.04000
C1985       C  0.82948051  0.43755413  0.63242873     0.86200
C1986       C  0.83288716  0.40032984  0.61806837    -0.54000
C1987       C  0.87674709  0.41522497  0.60829033     0.09100
C1988       C  0.91550236  0.47228930  0.61522004     0.20100
C1989       C  0.86737165  0.45765504  0.65082972    -0.54700
C1990       C  0.91049910  0.47055005  0.64346779     0.09200
C1991       C  0.84891577  0.47970549  0.61596702    -0.54300
C1992       C  0.89568811  0.50427967  0.60799680     0.09800
H1993       H  0.80486398  0.36324175  0.62002423     0.14300
H1994       H  0.95261568  0.48822617  0.60866197     0.00100
H1995       H  0.85951109  0.45838084  0.67013430     0.14600
H1996       H  0.82936779  0.49415482  0.61443922     0.14400
C1997       C  0.58936746  0.19229850  0.63204732     0.86200
C1998       C  0.54056854  0.17162117  0.62109292    -0.54000
C1999       C  0.50935095  0.12293749  0.61824764     0.09100
C2000       C  0.54013628  0.10091074  0.62453649     0.20100
C2001       C  0.58009230  0.16411939  0.65397305    -0.54700
C2002       C  0.55502465  0.11773595  0.65143170     0.09200
C2003       C  0.61168081  0.17788919  0.61319689    -0.54300
C2004       C  0.59344317  0.13155047  0.61056209     0.09800
H2005       H  0.53472651  0.19625831  0.61360519     0.14300
H2006       H  0.51927523  0.06195346  0.62228860     0.00100
H2007       H  0.59242498  0.18066236  0.67197595     0.14600
H2008       H  0.61822535  0.19489651  0.59618093     0.14400
C2009       C  0.59311340  0.42547082  0.62892765     0.86200
C2010       C  0.61476192  0.46368335  0.61003465    -0.54000
C2011       C  0.59771510  0.48983649  0.60898572     0.09100
C2012       C  0.54497206  0.46035792  0.62238228     0.20100
C2013       C  0.58055694  0.44137790  0.65149602    -0.54700
C2014       C  0.55612818  0.45954613  0.64956602     0.09200
C2015       C  0.54232265  0.38703265  0.61928402    -0.54300
C2016       C  0.51492653  0.40373221  0.61398632     0.09800
H2017       H  0.62501711  0.45610599  0.59280828     0.14300
H2018       H  0.52664833  0.47778867  0.62106979     0.00100
H2019       H  0.58554613  0.43205474  0.66943495     0.14600
H2020       H  0.52781701  0.34988912  0.62009186     0.14400
O2021       O  0.90369302  0.42763766  0.80700746    -0.82100
C2022       C  0.55156817  0.08435155  0.75247717     0.97300
O2023       O  0.02472148  0.09019578  0.76728250    -0.71200
O2024       O  0.94492688  0.01497816  0.75339362    -0.74800
Al2025     Al  0.96956910  0.03855498  0.78396106     1.49000
C2026       C  0.91643770  0.46588131  0.74302171     0.92500
O2027       O  0.97399331  0.42475523  0.75660951    -0.81000
O2028       O  0.54390223  0.00073971  0.81829887    -0.74600
Al2029     Al  0.94151275  0.43043322  0.78211901     1.90100
O2030       O  0.55908534  0.98544211  0.76845837    -0.73600
O2031       O  0.56327869  0.08145766  0.80821975    -0.73500
O2032       O  0.56827537  0.06191250  0.75869464    -0.79100
O2033       O  0.99287920  0.06409071  0.81451866    -0.77300
O2034       O  0.99250270  0.00348213  0.78497895    -1.13500
O2035       O  0.90989390  0.99519329  0.80071480    -0.72700
C2036       C  0.89212773  0.45447780  0.81370854     0.98000
C2037       C  0.51695048  0.44691340  0.75160310     0.94400
Al2038     Al  0.55434568  0.02998499  0.78821085     1.55600
O2039       O  0.90502324  0.43061899  0.75568982    -0.77300
C2040       C  0.53141994  0.07872564  0.82197253     0.98600
C2041       C  0.49994657  0.45219779  0.82371853     0.93500
O2042       O  0.97190257  0.42101978  0.80849815    -0.82600
C2043       C  0.73953207  0.00458475  0.57196095     0.86200
C2044       C  0.71035875  0.01624421  0.58780231    -0.54000
C2045       C  0.72554881  0.06315012  0.58895514     0.09100
C2046       C  0.78040201  0.09564259  0.57569211     0.20100
C2047       C  0.74496804  0.02795799  0.54883632    -0.54700
C2048       C  0.76744684  0.07433698  0.54925208     0.09200
C2049       C  0.78612930  0.03152363  0.58467376    -0.54300
C2050       C  0.81507963  0.07946471  0.58484177     0.09800
H2051       H  0.69679823  0.99614385  0.60385979     0.14300
H2052       H  0.79853685  0.13447535  0.57614917     0.00100
H2053       H  0.73068467  0.00755042  0.53200906     0.14600
H2054       H  0.79388557  0.00997571  0.59327255     0.14400
C2055       C  0.99061636  0.26452283  0.56775454     0.86200
C2056       C  0.97569847  0.22343131  0.58426124    -0.54000
C2057       C  0.92902954  0.19729045  0.59268857     0.09100
C2058       C  0.90570781  0.22663970  0.58645965     0.20100
C2059       C  0.95034362  0.24166416  0.54960892    -0.54700
C2060       C  0.90769204  0.22906845  0.55811969     0.09200
C2061       C  0.98602797  0.29961320  0.58337166    -0.54300
C2062       C  0.94235123  0.28299380  0.59351858     0.09800
H2063       H  0.99886396  0.21194380  0.58614440     0.14300
H2064       H  0.86888818  0.20871842  0.59395411     0.00100
H2065       H  0.95707405  0.24290158  0.53010035     0.14600
H2066       H  0.01320353  0.33667445  0.58294620     0.14400
C2067       C  0.72636186  0.27558729  0.57312124     0.86200
C2068       C  0.77718152  0.31033737  0.58311533    -0.54000
C2069       C  0.80246143  0.29159250  0.58716521     0.09100
C2070       C  0.77052958  0.23523311  0.57772390     0.20100
C2071       C  0.73661196  0.25968024  0.54995508    -0.54700
C2072       C  0.75731461  0.23727966  0.55126292     0.09200
C2073       C  0.70188143  0.23346170  0.58975909    -0.54300
C2074       C  0.71844833  0.20593911  0.59087166     0.09800
H2075       H  0.79542956  0.34787333  0.58173328     0.14300
H2076       H  0.78895072  0.21765828  0.57776732     0.00100
H2077       H  0.73040908  0.26805446  0.53242232     0.14600
H2078       H  0.69021377  0.24123882  0.60592956     0.14400
O2079       O  0.91708302  0.21751448  0.40813113    -0.82100
C2080       C  0.77174343  0.22016379  0.45105381     0.97300
O2081       O  0.81522050  0.24724542  0.44591330    -0.71200
O2082       O  0.89638975  0.26038833  0.44736240    -0.74800
Al2083     Al  0.85336010  0.25023496  0.42152872     1.49000
C2084       C  0.88835259  0.22932961  0.46232359     0.92500
O2085       O  0.81007181  0.10387778  0.43493649    -0.81000
O2086       O  0.76483530  0.10503570  0.39422800    -0.74600
Al2087     Al  0.85879273  0.16402022  0.42150622     1.90100
O2088       O  0.75207499  0.11170351  0.44296748    -0.73600
O2089       O  0.76444537  0.17783175  0.38679286    -0.73500
O2090       O  0.74449989  0.18323270  0.43788550    -0.79100
O2091       O  0.81662835  0.25221411  0.39681222    -0.77300
O2092       O  0.82392166  0.18724844  0.41979472    -1.13500
O2093       O  0.89425303  0.26058407  0.39630339    -0.72700
C2094       C  0.91825014  0.24423420  0.39268070     0.98000
C2095       C  0.77542016  0.09510370  0.44823218     0.94400
Al2096     Al  0.76088917  0.14773255  0.41574086     1.55600
O2097       O  0.87494389  0.18831216  0.45448255    -0.77300
C2098       C  0.79134465  0.22061896  0.38096494     0.98600
C2099       C  0.79934026  0.11373036  0.38054684     0.93500
O2100       O  0.84189171  0.13867159  0.38866061    -0.82600
C2101       C  0.88849783  0.37677103  0.60234483     0.02000
C2102       C  0.85730120  0.32488513  0.59513452     0.02000
C2103       C  0.87996850  0.30053622  0.59474948    -0.18500
C2104       C  0.92901061  0.31966274  0.59942678     0.02000
C2105       C  0.96014091  0.37118851  0.60647307     0.02000
C2106       C  0.93696101  0.39502021  0.60765680    -0.18500
H2107       H  0.95707457  0.42992787  0.61489256     0.04000
H2108       H  0.85825273  0.26405505  0.58962103     0.04000
C2109       C  0.68407211  0.15019205  0.59699761     0.02000
C2110       C  0.63104864  0.11884346  0.60347177     0.02000
C2111       C  0.61050583  0.06960657  0.60487309    -0.18500
C2112       C  0.63415099  0.04624412  0.60247309     0.02000
C2113       C  0.68748686  0.07671497  0.59585971     0.02000
C2114       C  0.70788492  0.12647513  0.59415261    -0.18500
H2115       H  0.74554640  0.14824530  0.59037390     0.04000
H2116       H  0.57267283  0.04788326  0.60830632     0.04000
C2117       C  0.95531276  0.10403738  0.61169694     0.02000
C2118       C  0.91545866  0.05800829  0.60169294     0.02000
C2119       C  0.88121994  0.06221275  0.58852600    -0.18500
C2120       C  0.87056549  0.09874167  0.59036300     0.02000
C2121       C  0.90996860  0.14418129  0.60054823     0.02000
C2122       C  0.94555798  0.14117047  0.61317021    -0.18500
H2123       H  0.96836170  0.17219689  0.62446036     0.04000
H2124       H  0.85917736  0.03200719  0.57683889     0.04000
C2125       C  0.76412986  0.22326015  0.52677540    -0.00400
C2126       C  0.80099449  0.26234978  0.51384943    -0.12300
C2127       C  0.79566668  0.26780532  0.48945067     0.01800
C2128       C  0.75807533  0.22950933  0.47559111    -0.00500
C2129       C  0.71841171  0.19261750  0.48846585    -0.12200
C2130       C  0.72170535  0.18876292  0.51373857     0.01700
H2131       H  0.83063091  0.29226525  0.52380619     0.14700
H2132       H  0.68798058  0.16359810  0.47857710     0.14700
C2133       C  0.68026086  0.15054389  0.52641593     0.36300
C2134       C  0.82943003  0.31346133  0.47883052     0.36200
N2135       N  0.64696034  0.12026115  0.53666058    -0.44000
N2136       N  0.85597044  0.34999042  0.47019161    -0.44000
C2137       C  0.88504543  0.24370291  0.54097102    -0.00400
C2138       C  0.84705306  0.20590899  0.52857466    -0.12300
C2139       C  0.84772305  0.20401054  0.50317010     0.01800
C2140       C  0.88755589  0.23795913  0.48932707    -0.00500
C2141       C  0.91944260  0.28151403  0.50129994    -0.12200
C2142       C  0.91520244  0.28542794  0.52684193     0.01700
H2143       H  0.81728739  0.17785942  0.53888717     0.14700
H2144       H  0.94616126  0.31212328  0.49098299     0.14700
C2145       C  0.94150993  0.33163294  0.53829258     0.36300
C2146       C  0.80316250  0.17508026  0.49187517     0.36200
N2147       N  0.96115619  0.36925588  0.54697492    -0.44000
N2148       N  0.76570498  0.15322718  0.48366607    -0.44000
C2149       C  0.77415809  0.09106909  0.52406883    -0.00400
C2150       C  0.73074581  0.07125645  0.51125009    -0.12300
C2151       C  0.72726444  0.05947404  0.48636202     0.01800
C2152       C  0.76924732  0.07523695  0.47272116    -0.00500
C2153       C  0.81151246  0.09128110  0.48537308    -0.12200
C2154       C  0.81412666  0.09891169  0.51066588     0.01700
H2155       H  0.69825236  0.06009361  0.52137173     0.14700
H2156       H  0.84404313  0.10242425  0.47533683     0.14700
C2157       C  0.85888960  0.11623413  0.52237175     0.36300
C2158       C  0.68138941  0.03593835  0.47466487     0.36200
N2159       N  0.89531885  0.13064230  0.53126284    -0.44000
N2160       N  0.64468013  0.01671898  0.46517699    -0.44000
C2161       C  0.53685832  0.46056333  0.67417839    -0.00400
C2162       C  0.57312635  0.49408392  0.69046113    -0.12300
C2163       C  0.57150119  0.48592044  0.71540888     0.01800
C2164       C  0.53007694  0.44667035  0.72566510    -0.00500
C2165       C  0.49513781  0.41156630  0.70985092    -0.12200
C2166       C  0.50003983  0.41654693  0.68457747     0.01700
H2167       H  0.61330169  0.02923361  0.68151492     0.14700
H2168       H  0.96474532  0.38216659  0.71696032     0.14700
C2169       C  0.97321878  0.37633610  0.67009822     0.36300
C2170       C  0.62393132  0.02818013  0.72841941     0.36200
N2171       N  0.95185099  0.34037557  0.65960224    -0.44000
N2172       N  0.65901301  0.05381056  0.73899529    -0.44000
C2173       C  0.55764723  0.09954261  0.72692427    -0.00400
C2174       C  0.58881039  0.09652067  0.71106551    -0.12300
C2175       C  0.58514524  0.09674419  0.68570792     0.01800
C2176       C  0.54741090  0.09653124  0.67557413    -0.00500
C2177       C  0.52124263  0.10648239  0.69192130    -0.12200
C2178       C  0.52702715  0.10944696  0.71695888     0.01700
H2179       H  0.61767648  0.09656954  0.71855248     0.14700
H2180       H  0.49884584  0.11624073  0.68465959     0.14700
C2181       C  0.50322417  0.12565053  0.73165167     0.36300
C2182       C  0.62528739  0.10640524  0.67080265     0.36200
N2183       N  0.48425582  0.13890275  0.74329868    -0.44000
N2184       N  0.65792944  0.11487527  0.65911916    -0.44000
C2185       C  0.93694184  0.47184959  0.66476154    -0.00400
C2186       C  0.94838437  0.51094023  0.67935308    -0.12300
C2187       C  0.93120924  0.50517921  0.70324633     0.01800
C2188       C  0.91635716  0.46409421  0.71593719    -0.00500
C2189       C  0.91038396  0.42586118  0.70258082    -0.12200
C2190       C  0.91684395  0.42808085  0.67709755     0.01700
H2191       H  0.95418213  0.54091222  0.66989102     0.14700
H2192       H  0.89672191  0.39294573  0.71167477     0.14700
C2193       C  0.89003044  0.38298150  0.66419924     0.36300
C2194       C  0.91948789  0.53711512  0.71248106     0.36200
N2195       N  0.86683829  0.34585388  0.65492608    -0.44000
N2196       N  0.89051151  0.05171522  0.72103419    -0.44000
C2197       C  0.94709169  0.05844736  0.19654831    -0.00400
C2198       C  0.90745826  0.01764701  0.18560813    -0.12300
C2199       C  0.89873820  0.01475635  0.16080560     0.01800
C2200       C  0.93380267  0.04993277  0.14538063    -0.00500
C2201       C  0.97242223  0.09189452  0.15574521    -0.12200
C2202       C  0.97728440  0.09764794  0.18099381     0.01700
H2203       H  0.87773361  0.99314073  0.19722062     0.14700
H2204       H  0.99767341  0.12108572  0.14420292     0.14700
C2205       C  0.00437461  0.14604509  0.19032561     0.36300
C2206       C  0.85659133  0.48406577  0.15433823     0.36200
N2207       N  0.52032961  0.18512330  0.19674845    -0.44000
N2208       N  0.81794785  0.45564510  0.14791346    -0.44000
C2209       C  0.94229339  0.43308142  0.19735128    -0.00400
C2210       C  0.97302306  0.42588010  0.18331555    -0.12300
C2211       C  0.96627159  0.41493442  0.15855610     0.01800
C2212       C  0.93292409  0.41780374  0.14592457    -0.00500
C2213       C  0.89965946  0.42108997  0.15943392    -0.12200
C2214       C  0.90252710  0.42608766  0.18495089     0.01700
H2215       H  0.99709338  0.42042165  0.19258775     0.14700
H2216       H  0.87042336  0.41763348  0.15005311     0.14700
C2217       C  0.85980714  0.41373337  0.19831200     0.36300
C2218       C  0.99128808  0.39710029  0.14660457     0.36200
N2219       N  0.82580070  0.40359444  0.20922392    -0.44000
N2220       N  0.01079631  0.38231851  0.13697381    -0.44000
C2221       C  0.55321007  0.05455137  0.20334477    -0.00400
C2222       C  0.55690053  0.02208000  0.18882520    -0.12300
C2223       C  0.56598414  0.02722865  0.16368463     0.01800
C2224       C  0.56469169  0.06135202  0.15139968    -0.00500
C2225       C  0.56271944  0.09485642  0.16546556    -0.12200
C2226       C  0.55971899  0.09328893  0.19093595     0.01700
H2227       H  0.56328814  0.99888657  0.19798743     0.14700
H2228       H  0.56728436  0.12475259  0.15657634     0.14700
C2229       C  0.57832194  0.13790738  0.20367800     0.36300
C2230       C  0.58393132  0.00247204  0.15172850     0.36200
N2231       N  0.59541132  0.17433438  0.21345338    -0.44000
N2232       N  0.59977559  0.98401779  0.14207718    -0.44000
C2233       C  0.72685486  0.45321260  0.56314886    -0.00400
C2234       C  0.76413879  0.45917968  0.54757143    -0.12300
C2235       C  0.75740624  0.45265452  0.52248775     0.01800
C2236       C  0.71031460  0.42667929  0.51350098    -0.00500
C2237       C  0.67229994  0.40526598  0.53062652    -0.12200
C2238       C  0.68056758  0.41791883  0.55548782     0.01700
H2239       H  0.80080069  0.98098741  0.55448293     0.14700
H2240       H  0.63688047  0.37867645  0.52455950     0.14700
C2241       C  0.64433182  0.39052932  0.57350313     0.36300
C2242       C  0.79931535  0.47475771  0.50684639     0.36200
N2243       N  0.61586574  0.36758880  0.58815364    -0.44000
N2244       N  0.83269519  0.49281662  0.49420709    -0.44000
C2245       C  0.68937191  0.30252524  0.51639990    -0.00400
C2246       C  0.71987210  0.34160026  0.53206733    -0.12300
C2247       C  0.71761076  0.33593960  0.55724065     0.01800
C2248       C  0.69373968  0.29054930  0.56609071    -0.00500
C2249       C  0.65268159  0.25533118  0.55270486    -0.12200
C2250       C  0.65328801  0.25914841  0.52726876     0.01700
H2251       H  0.74708082  0.37537850  0.52471577     0.14700
H2252       H  0.62996953  0.22000580  0.55970496     0.14700
C2253       C  0.62659464  0.21564084  0.51307706     0.36300
C2254       C  0.74289820  0.37498219  0.57415235     0.36200
N2255       N  0.60723010  0.18068513  0.50170192    -0.44000
N2256       N  0.76137044  0.40465661  0.58887685    -0.44000
C2257       C  0.53391263  0.28293515  0.55038603    -0.00400
C2258       C  0.53707274  0.24751533  0.53883085    -0.12300
C2259       C  0.53894373  0.24445569  0.51351726     0.01800
C2260       C  0.54774547  0.28191499  0.49934529    -0.00500
C2261       C  0.55062981  0.32000702  0.51074235    -0.12200
C2262       C  0.54635171  0.32219182  0.53582052     0.01700
H2263       H  0.03317894  0.22160586  0.55148628     0.14700
H2264       H  0.56016034  0.35039709  0.50024506     0.14700
C2265       C  0.55664282  0.36655342  0.54534941     0.36300
C2266       C  0.52546565  0.20002386  0.50225819     0.36200
N2267       N  0.56652143  0.40317218  0.55228183    -0.44000
N2268       N  0.51341704  0.16421085  0.49302921    -0.44000
C2269       C  0.77482115  0.07802924  0.30360692    -0.00400
C2270       C  0.74293244  0.08336541  0.31758291    -0.12300
C2271       C  0.74751919  0.08906998  0.34293174     0.01800
C2272       C  0.78929821  0.09807780  0.35436136    -0.00500
C2273       C  0.82594935  0.10314739  0.33892179    -0.12200
C2274       C  0.82031181  0.09992121  0.31337066     0.01700
H2275       H  0.70954297  0.07338301  0.30967578     0.14700
H2276       H  0.86064901  0.11684318  0.34640198     0.14700
C2277       C  0.85862945  0.13267252  0.29760440     0.36300
C2278       C  0.70891271  0.08644592  0.35609687     0.36200
N2279       N  0.88618799  0.15969170  0.28377277    -0.44000
N2280       N  0.67758951  0.08419479  0.36629847    -0.44000
C2281       C  0.70535103  0.43741434  0.34103614    -0.00400
C2282       C  0.72819752  0.41810765  0.34924872    -0.12300
C2283       C  0.72780029  0.41180606  0.37395687     0.01800
C2284       C  0.71952936  0.43734965  0.39130230    -0.00500
C2285       C  0.69801008  0.45874743  0.38325002    -0.12200
C2286       C  0.68757967  0.45569114  0.35853478     0.01700
H2287       H  0.73932348  0.40162693  0.33636611     0.14700
H2288       H  0.68568023  0.47390650  0.39624040     0.14700
C2289       C  0.65805661  0.47066203  0.35110311     0.36300
C2290       C  0.70565524  0.36424647  0.37941805     0.36200
N2291       N  0.62876825  0.97682094  0.34384971    -0.44000
N2292       N  0.68152632  0.32508304  0.38414073    -0.44000
C2293       C  0.79626099  0.23311780  0.35493146    -0.00400
C2294       C  0.82497842  0.28025505  0.34798121    -0.12300
C2295       C  0.83034311  0.29106779  0.32323130     0.01800
C2296       C  0.79810511  0.25340119  0.30577159    -0.00500
C2297       C  0.78116404  0.20755232  0.31249705    -0.12200
C2298       C  0.78684274  0.19979094  0.33647054     0.01700
H2299       H  0.84175684  0.30838362  0.36172227     0.14700
H2300       H  0.76037106  0.17774825  0.29999580     0.14700
C2301       C  0.82256400  0.19211884  0.33645509     0.36300
C2302       C  0.85553750  0.34123892  0.31926124     0.36200
N2303       N  0.85630991  0.19280671  0.33567134    -0.44000
N2304       N  0.87563202  0.38181883  0.31759069    -0.44000
C2305       C  0.73262028  0.29092864  0.39698160    -0.00400
C2306       C  0.69558090  0.24858866  0.38572841    -0.12300
C2307       C  0.68310142  0.24730750  0.36159738     0.01800
C2308       C  0.71212513  0.28753061  0.34642738    -0.00500
C2309       C  0.75572440  0.32607611  0.35667659    -0.12200
C2310       C  0.76642600  0.32776671  0.38152432     0.01700
H2311       H  0.67179205  0.21794941  0.39682225     0.14700
H2312       H  0.78208187  0.35442099  0.34501797     0.14700
C2313       C  0.80968310  0.36955608  0.39106113     0.36300
C2314       C  0.64601072  0.20102016  0.35185477     0.36200
N2315       N  0.84460809  0.40314075  0.39855896    -0.44000
N2316       N  0.61761950  0.16309778  0.34454033    -0.44000
C2317       C  0.95276543  0.24281335  0.31723697    -0.00400
C2318       C  0.94648958  0.27737115  0.32721153    -0.12300
C2319       C  0.94390904  0.28313123  0.35229219     0.01800
C2320       C  0.93907276  0.24940848  0.36822787    -0.00500
C2321       C  0.93995574  0.21193160  0.35864567    -0.12200
C2322       C  0.94533958  0.20720024  0.33367321     0.01700
H2323       H  0.95005818  0.30430578  0.31604221     0.14700
H2324       H  0.93497604  0.18514184  0.37066041     0.14700
C2325       C  0.95140883  0.17016696  0.32679044     0.36300
C2326       C  0.94799351  0.32514235  0.36129729     0.36200
N2327       N  0.95568165  0.13992648  0.32179657    -0.44000
N2328       N  0.95173713  0.35887118  0.36873508    -0.44000
C2329       C  0.61072508  0.31445417  0.32947855    -0.00400
C2330       C  0.61358632  0.35017769  0.34420447    -0.12300
C2331       C  0.59803202  0.34228737  0.36847790     0.01800
C2332       C  0.59015240  0.30308584  0.38067161    -0.00500
C2333       C  0.59007454  0.26826077  0.36672096    -0.12200
C2334       C  0.60035421  0.27354643  0.34162274     0.01700
H2335       H  0.61388252  0.37770433  0.33505777     0.14700
H2336       H  0.58300029  0.23718120  0.37553894     0.14700
C2337       C  0.58477478  0.23053154  0.32824372     0.36300
C2338       C  0.58450797  0.37157606  0.37964672     0.36200
N2339       N  0.56935368  0.19433834  0.31856631    -0.44000
N2340       N  0.57314925  0.39448363  0.38868726    -0.44000
C2341       C  0.83931284  0.11652196  0.17866995    -0.00400
C2342       C  0.81297039  0.07137672  0.18814977    -0.12300
C2343       C  0.81915810  0.06543889  0.21242340     0.01800
C2344       C  0.85728544  0.10622824  0.22628890    -0.00500
C2345       C  0.87592600  0.15087921  0.21730004    -0.12200
C2346       C  0.85944156  0.15452014  0.19540787     0.01700
H2347       H  0.79036941  0.04086575  0.17625925     0.14700
H2348       H  0.90017312  0.18246023  0.22815725     0.14700
C2349       C  0.83086198  0.17084573  0.20104312     0.36300
C2350       C  0.79903971  0.01671263  0.21814384     0.36200
N2351       N  0.80747127  0.18160149  0.20971286    -0.44000
N2352       N  0.78240107  0.97714651  0.22146341    -0.44000
C2353       C  0.87350948  0.26749524  0.17999179    -0.00400
C2354       C  0.83472165  0.26689805  0.18974723    -0.12300
C2355       C  0.83055856  0.27340002  0.21471389     0.01800
C2356       C  0.86977864  0.28634396  0.23018289    -0.00500
C2357       C  0.90111883  0.27469324  0.22123382    -0.12200
C2358       C  0.90708635  0.27128743  0.19614125     0.01700
H2359       H  0.80810227  0.26282883  0.17766656     0.14700
H2360       H  0.92727887  0.27721551  0.23306485     0.14700
C2361       C  0.94728357  0.27088372  0.18775493     0.36300
C2362       C  0.79545560  0.28291675  0.22080749     0.36200
N2363       N  0.97964301  0.27064758  0.18120888    -0.44000
N2364       N  0.76661922  0.29037595  0.22369509    -0.44000
C2365       C  0.71915428  0.13656576  0.17473683    -0.00400
C2366       C  0.71813318  0.10013365  0.18582170    -0.12300
C2367       C  0.71505640  0.09595391  0.21106273     0.01800
C2368       C  0.70784485  0.12586813  0.22613658    -0.00500
C2369       C  0.71855815  0.16781900  0.21514460    -0.12200
C2370       C  0.71945266  0.17082716  0.18967827     0.01700
H2371       H  0.72137626  0.07546854  0.17483482     0.14700
H2372       H  0.71241502  0.19105841  0.22533713     0.14700
C2373       C  0.71337497  0.20500207  0.17937584     0.36300
C2374       C  0.71754355  0.05917737  0.22049104     0.36200
N2375       N  0.70812965  0.23205748  0.17108617    -0.44000
N2376       N  0.71830668  0.02844476  0.22748909    -0.44000
C2377       C  0.92186333  0.04890335  0.97400685    -0.00400
C2378       C  0.88473015  0.01021981  0.98765984    -0.12300
C2379       C  0.89014760  0.00864589  0.01276319     0.01800
C2380       C  0.93528521  0.04191501  0.02349770    -0.00500
C2381       C  0.97416332  0.07202694  0.00801493    -0.12200
C2382       C  0.96771298  0.07205725  0.98322899     0.01700
H2383       H  0.84907089  0.98801372  0.98017029     0.14700
H2384       H  0.00967205  0.09559135  0.01512770     0.14700
C2385       C  0.00763791  0.09585238  0.96710213     0.36300
C2386       C  0.84957734  0.97210600  0.02662347     0.36200
N2387       N  0.03870410  0.11378029  0.95325383    -0.44000
N2388       N  0.81740569  0.94244845  0.03773457    -0.44000
C2389       C  0.83807312  0.10548048  0.00396269    -0.00400
C2390       C  0.85496110  0.14827008  0.01498156    -0.12300
C2391       C  0.85303374  0.15135967  0.03991462     0.01800
C2392       C  0.84082479  0.11421213  0.05519903    -0.00500
C2393       C  0.81880215  0.06914293  0.04439529    -0.12200
C2394       C  0.81558810  0.06426641  0.01882532     0.01700
H2395       H  0.86832571  0.17904274  0.00393075     0.14700
H2396       H  0.80421524  0.03839238  0.05558777     0.14700
C2397       C  0.79188386  0.01741342  0.00794911     0.36300
C2398       C  0.84159233  0.18217217  0.04773446     0.36200
N2399       N  0.77171046  0.97971948  0.99927496    -0.44000
N2400       N  0.82639004  0.20348149  0.05220099    -0.44000
C2401       C  0.95380513  0.41277331  0.97180720    -0.00400
C2402       C  0.99174149  0.41978968  0.98638856    -0.12300
C2403       C  0.99033287  0.42597752  0.01188312     0.01800
C2404       C  0.95920563  0.43697207  0.02186034    -0.00500
C2405       C  0.93428088  0.44566260  0.00540143    -0.12200
C2406       C  0.93488661  0.43731839  0.98031613     0.01700
H2407       H  0.00970053  0.40354584  0.98074960     0.14700
H2408       H  0.91118329  0.45497481  0.01225442     0.14700
C2409       C  0.90965841  0.44648843  0.96380788     0.36300
C2410       C  0.00974952  0.40778535  0.02714623     0.36200
N2411       N  0.88968600  0.45265187  0.94959419    -0.44000
N2412       N  0.52620721  0.39142865  0.03969154    -0.44000
C2413       C  0.87491194  0.27351141  0.01253883    -0.00400
C2414       C  0.91330389  0.27248330  0.02071658    -0.12300
C2415       C  0.92693202  0.28084253  0.04548320     0.01800
C2416       C  0.90294444  0.29206921  0.06265895    -0.00500
C2417       C  0.87344339  0.30409352  0.05336041    -0.12200
C2418       C  0.85498253  0.28976554  0.02988041     0.01700
H2419       H  0.93336472  0.26608805  0.00760198     0.14700
H2420       H  0.85763972  0.31669172  0.06578889     0.14700
C2421       C  0.82252653  0.30145870  0.02262368     0.36300
C2422       C  0.96168904  0.27276931  0.05311130     0.36200
N2423       N  0.79768749  0.31214542  0.01686447    -0.44000
N2424       N  0.98951621  0.26614866  0.05916752    -0.44000
C2425       C  0.58535454  0.07023024  0.02757645    -0.00400
C2426       C  0.59153400  0.11008797  0.01795873    -0.12300
C2427       C  0.60108625  0.11945591  0.99319176     0.01800
C2428       C  0.60334306  0.08697365  0.97685753    -0.00500
C2429       C  0.58385722  0.04165614  0.98625413    -0.12200
C2430       C  0.58481043  0.03735342  0.01144481     0.01700
H2431       H  0.59045473  0.13502903  0.02998320     0.14700
H2432       H  0.58492779  0.01611043  0.97496113     0.14700
C2433       C  0.60188318  0.01040082  0.01972479     0.36300
C2434       C  0.61264809  0.16509843  0.98662853     0.36200
N2435       N  0.61391169  0.48801070  0.02690949    -0.44000
N2436       N  0.62120194  0.20177560  0.98215345    -0.44000
C2437       C  0.75562330  0.14513935  0.00060853    -0.00400
C2438       C  0.75730327  0.18170172  0.01411435    -0.12300
C2439       C  0.73886420  0.17453123  0.03807003     0.01800
C2440       C  0.73050498  0.13604331  0.05133788    -0.00500
C2441       C  0.73070310  0.10028187  0.03822792    -0.12200
C2442       C  0.74245621  0.10413642  0.01342371     0.01700
H2443       H  0.76288141  0.21119990  0.00428253     0.14700
H2444       H  0.72229066  0.06907830  0.04748248     0.14700
C2445       C  0.72819345  0.06093958  0.00029555     0.36300
C2446       C  0.73283035  0.20914724  0.04927842     0.36200
N2447       N  0.71514492  0.02604155  0.98971980    -0.44000
N2448       N  0.72775997  0.23669921  0.05838019    -0.44000
C2449       C  0.77274200  0.42235337  0.70034274    -0.00400
C2450       C  0.77285774  0.45414298  0.68512631    -0.12300
C2451       C  0.77813568  0.45274540  0.66004504     0.01800
C2452       C  0.78536397  0.41928812  0.64895338    -0.00500
C2453       C  0.77599174  0.38191996  0.66416792    -0.12200
C2454       C  0.77482680  0.38610603  0.68957296     0.01700
H2455       H  0.76948877  0.48137958  0.69296337     0.14700
H2456       H  0.77999187  0.35482493  0.65704709     0.14700
C2457       C  0.78139386  0.35617341  0.70397891     0.36300
C2458       C  0.78042704  0.48974579  0.64736567     0.36200
N2459       N  0.78749628  0.33274122  0.71551518    -0.44000
N2460       N  0.78317783  0.52110123  0.63846929    -0.44000
C2461       C  0.62895000  0.27415472  0.69276394    -0.00400
C2462       C  0.66477079  0.27307877  0.68065663    -0.12300
C2463       C  0.66045820  0.25822426  0.65636562     0.01800
C2464       C  0.61752551  0.24250640  0.64322792    -0.00500
C2465       C  0.58695364  0.25348766  0.65425000    -0.12200
C2466       C  0.58922803  0.26394977  0.67922756     0.01700
H2467       H  0.69513308  0.28054801  0.69085404     0.14700
H2468       H  0.55601255  0.24603066  0.64465688     0.14700
C2469       C  0.55123365  0.26607926  0.68970265     0.36300
C2470       C  0.69338630  0.24625161  0.64957097     0.36200
N2471       N  0.52040291  0.26780847  0.69745453    -0.44000
N2472       N  0.72091432  0.23729144  0.64588089    -0.44000
C2473       C  0.64588294  0.40753532  0.68710108    -0.00400
C2474       C  0.67357619  0.45300981  0.67793381    -0.12300
C2475       C  0.66887288  0.45949028  0.65343033     0.01800
C2476       C  0.62952106  0.41935635  0.63966262    -0.00500
C2477       C  0.60993008  0.37422823  0.64860130    -0.12200
C2478       C  0.62794225  0.37013867  0.66984543     0.01700
H2479       H  0.69405367  0.48331070  0.69023055     0.14700
H2480       H  0.58377971  0.34269399  0.63824425     0.14700
C2481       C  0.66084257  0.35983784  0.66138878     0.36300
C2482       C  0.68924479  0.50842113  0.64811276     0.36200
N2483       N  0.68492351  0.35190501  0.65060477    -0.44000
N2484       N  0.70581899  0.54806848  0.64510197    -0.44000
C2485       C  0.55016333  0.11647183  0.89777409    -0.00400
C2486       C  0.58833264  0.11972353  0.88439832    -0.12300
C2487       C  0.58513135  0.11344581  0.85905988     0.01800
C2488       C  0.53987567  0.09164560  0.84813219    -0.00500
C2489       C  0.49953002  0.07362331  0.86360720    -0.12200
C2490       C  0.50473234  0.08450019  0.88845843     0.01700
H2491       H  0.62347681  0.13828092  0.89214874     0.14700
H2492       H  0.96649546  0.05308792  0.85632840     0.14700
C2493       C  0.46631291  0.05611613  0.90516137     0.36300
C2494       C  0.62872317  0.13292909  0.84500805     0.36200
N2495       N  0.93838959  0.03367378  0.91903564    -0.44000
N2496       N  0.66374472  0.14939693  0.83372092    -0.44000
C2497       C  0.60497753  0.25709942  0.86214099    -0.00400
C2498       C  0.64680497  0.26866835  0.84994038    -0.12300
C2499       C  0.65050289  0.27242779  0.82468029     0.01800
C2500       C  0.61230238  0.26661054  0.81134470    -0.00500
C2501       C  0.56974180  0.25278947  0.82353195    -0.12200
C2502       C  0.56528026  0.24663096  0.84845194     0.01700
H2503       H  0.67561197  0.27241431  0.86012741     0.14700
H2504       H  0.53984884  0.24714639  0.81354775     0.14700
C2505       C  0.51866947  0.22641968  0.85959481     0.36300
C2506       C  0.69444762  0.28350479  0.81344687     0.36200
N2507       N  0.48132360  0.20934948  0.86860841    -0.44000
N2508       N  0.72997652  0.29224283  0.80491273    -0.44000
C2509       C  0.85808141  0.45159261  0.88969473    -0.00400
C2510       C  0.86817246  0.42032940  0.87945752    -0.12300
C2511       C  0.86942852  0.41543939  0.85429158     0.01800
C2512       C  0.87547527  0.45077301  0.83912830    -0.00500
C2513       C  0.87668231  0.48852526  0.84988637    -0.12200
C2514       C  0.86875202  0.48991888  0.87482013     0.01700
H2515       H  0.86393118  0.39244200  0.89009495     0.14700
H2516       H  0.88386458  0.51730360  0.83877194     0.14700
C2517       C  0.86449954  0.52745746  0.88307561     0.36300
C2518       C  0.85579760  0.36995037  0.84461950     0.36200
N2519       N  0.86159064  0.55852727  0.88817362    -0.44000
N2520       N  0.84273623  0.33281401  0.83690749    -0.44000
C2521       C  0.71224415  0.41416866  0.87526922    -0.00400
C2522       C  0.74564065  0.45780935  0.86350371    -0.12300
C2523       C  0.75262941  0.45870277  0.83797095     0.01800
C2524       C  0.72208819  0.41721845  0.82389416    -0.00500
C2525       C  0.68039252  0.37993256  0.83557543    -0.12200
C2526       C  0.67568966  0.37925092  0.86104365     0.01700
H2527       H  0.77179521  0.48806289  0.87444989     0.14700
H2528       H  0.65095401  0.35274156  0.82478603     0.14700
C2529       C  0.63179541  0.34711773  0.87336603     0.36300
C2530       C  0.79220097  0.50112087  0.82692130     0.36200
N2531       N  0.59566145  0.32390927  0.88356618    -0.44000
N2532       N  0.82373183  0.53506671  0.81784311    -0.44000
C2533       C  0.50278482  0.43634928  0.90103097    -0.00400
C2534       C  0.46686101  0.39613385  0.88669603    -0.12300
C2535       C  0.46486532  0.39969029  0.86134227     0.01800
C2536       C  0.49337834  0.44453137  0.85070848    -0.00500
C2537       C  0.51672767  0.48449126  0.86675471    -0.12200
C2538       C  0.51809992  0.48001754  0.89197858     0.01700
H2539       H  0.45214779  0.36073446  0.89259060     0.14700
H2540       H  0.54590771  0.02619180  0.86191014     0.14700
C2541       C  0.54118898  0.52003965  0.90840609     0.36300
C2542       C  0.44098079  0.35679850  0.84656321     0.36200
N2543       N  0.55786819  0.55004334  0.92300683    -0.44000
N2544       N  0.92378326  0.32163531  0.83533865    -0.44000
C2545       C  0.60590733  0.40669078  0.81140813    -0.00400
C2546       C  0.56648006  0.36608285  0.82221087    -0.12300
C2547       C  0.56121628  0.36336604  0.84752980     0.01800
C2548       C  0.59752414  0.40008583  0.86267802    -0.00500
C2549       C  0.63632811  0.44072639  0.85192627    -0.12200
C2550       C  0.63999137  0.44515763  0.82680579     0.01700
H2551       H  0.53989926  0.33638264  0.81095865     0.14700
H2552       H  0.66196500  0.47067170  0.86341351     0.14700
C2553       C  0.67963939  0.49012240  0.81768461     0.36300
C2554       C  0.51661748  0.32469643  0.85788058     0.36200
N2555       N  0.71178154  0.52616872  0.81064967    -0.44000
N2556       N  0.48087254  0.29482644  0.86667282    -0.44000
C2557       C  0.54542930  0.93472008  0.90988829     0.86200
C2558       C  0.59211558  0.96934155  0.92403014    -0.54000
C2559       C  0.62370087  0.95629056  0.92446744     0.09100
C2560       C  0.59725539  0.90232347  0.91211628     0.20100
C2561       C  0.56386481  0.92937712  0.88605869    -0.54700
C2562       C  0.58753095  0.91022583  0.88593099     0.09200
C2563       C  0.52432973  0.89072629  0.92421838    -0.54300
C2564       C  0.54352119  0.86663799  0.92377743     0.09800
H2565       H  0.59112401  0.98918156  0.93897714     0.14300
H2566       H  0.61852695  0.88780437  0.91203348     0.00100
H2567       H  0.56010303  0.94231261  0.86931619     0.14600
H2568       H  0.51618428  0.89613720  0.94203163     0.14400
C2569       C  0.81062875  0.92721998  0.90372384     0.86200
C2570       C  0.79333085  0.88319632  0.91765565    -0.54000
C2571       C  0.74721004  0.85853628  0.92646777     0.09100
C2572       C  0.72480439  0.88990456  0.92053217     0.20100
C2573       C  0.77267458  0.90826035  0.88464539    -0.54700
C2574       C  0.72988642  0.89624218  0.89228991     0.09200
C2575       C  0.80589233  0.95889103  0.92218844    -0.54300
C2576       C  0.76138752  0.94511009  0.92942182     0.09800
H2577       H  0.81521073  0.87015325  0.91863330     0.14300
H2578       H  0.68737756  0.87207237  0.92704033     0.00100
H2579       H  0.78153758  0.91175590  0.86529972     0.14600
H2580       H  0.83014908  0.97041576  0.93703802     0.14400
C2581       C  0.56420370  0.66530026  0.90464706     0.86200
C2582       C  0.52910779  0.67516539  0.91633497    -0.54000
C2583       C  0.54764551  0.72218316  0.92193849     0.09100
C2584       C  0.60462692  0.75555269  0.91181478     0.20100
C2585       C  0.57840522  0.69253530  0.88205242    -0.54700
C2586       C  0.59908644  0.73842162  0.88461479     0.09200
C2587       C  0.60781635  0.69000544  0.92063036    -0.54300
C2588       C  0.63647365  0.73840433  0.92216185     0.09800
H2589       H  0.49116703  0.64824396  0.91529828     0.14300
H2590       H  0.62306660  0.79416980  0.91405975     0.00100
H2591       H  0.56982072  0.67550831  0.86408778     0.14600
H2592       H  0.61753097  0.66777728  0.92640864     0.14400
O2593       O  0.65957576  0.93125515  0.72704740    -0.82100
C2594       C  0.61494906  0.78460415  0.78539968     0.97300
O2595       O  0.59272253  0.80195630  0.77952572    -0.71200
O2596       O  0.58622071  0.86974139  0.76893385    -0.74800
Al2597     Al  0.60064322  0.83103517  0.74972905     1.49000
C2598       C  0.61435636  0.90366117  0.78332040     0.92500
O2599       O  0.73500631  0.94281644  0.78124779    -0.81000
O2600       O  0.75484466  0.89418947  0.74146097    -0.74600
Al2601     Al  0.69498082  0.93257005  0.75380878     1.90100
O2602       O  0.71345636  0.87097181  0.78882918    -0.73600
O2603       O  0.67836742  0.81661018  0.72510862    -0.73500
O2604       O  0.64603907  0.78753569  0.77127210    -0.79100
O2605       O  0.60153252  0.78382748  0.73063758    -0.77300
O2606       O  0.66399957  0.86957043  0.75339387    -1.13500
O2607       O  0.60563044  0.85624834  0.71888364    -0.72700
C2608       C  0.63713732  0.89731152  0.71165781     0.98000
C2609       C  0.72460121  0.91117608  0.79648596     0.94400
Al2610     Al  0.69650307  0.84444906  0.75654916     1.55600
O2611       O  0.65706783  0.93215611  0.77753005    -0.77300
C2612       C  0.63590427  0.79135848  0.71722740     0.98600
C2613       C  0.75568838  0.91950783  0.72524717     0.93500
O2614       O  0.73699909  0.94107165  0.72965691    -0.82600
C2615       C  0.71115147  0.54379291  0.93583145     0.02000
C2616       C  0.67900614  0.99153946  0.93181905     0.02000
C2617       C  0.70076297  0.96612743  0.93322112    -0.18500
C2618       C  0.75050862  0.98475108  0.93366840     0.02000
C2619       C  0.78301909  0.53689880  0.93688303     0.02000
C2620       C  0.76113715  0.56236696  0.93630242    -0.18500
H2621       H  0.78482239  0.60005505  0.93587757     0.04000
H2622       H  0.67709821  0.92843881  0.93440770     0.04000
C2623       C  0.65045556  0.60443022  0.96369637     0.86200
C2624       C  0.65606066  0.57186701  0.94599622    -0.54000
C2625       C  0.70163234  0.58456015  0.94131421     0.09100
C2626       C  0.73953439  0.64019976  0.95140360     0.20100
C2627       C  0.68278331  0.61494420  0.98406808    -0.54700
C2628       C  0.72861880  0.63450376  0.97919678     0.09200
C2629       C  0.67473738  0.65064663  0.95103964    -0.54300
C2630       C  0.72143463  0.67337022  0.94390353     0.09800
H2631       H  0.63298308  0.55685514  0.93060269     0.14300
H2632       H  0.77773385  0.65667269  0.94706771     0.00100
H2633       H  0.67025260  0.60908855  0.00283644     0.14600
H2634       H  0.65814718  0.66843186  0.95135223     0.14400
C2635       C  0.91584617  0.85919671  0.96244409     0.86200
C2636       C  0.86698377  0.83831537  0.95137853    -0.54000
C2637       C  0.83469012  0.78919130  0.95123875     0.09100
C2638       C  0.86418630  0.76666063  0.96057547     0.20100
C2639       C  0.90292290  0.83528790  0.98603108    -0.54700
C2640       C  0.87907889  0.78902563  0.98666839     0.09200
C2641       C  0.93466860  0.83833971  0.94582087    -0.54300
C2642       C  0.91743247  0.79288721  0.94660721     0.09800
H2643       H  0.85943941  0.86127001  0.94355533     0.14300
H2644       H  0.84279003  0.72754130  0.96071474     0.00100
H2645       H  0.91024636  0.85510323  0.00268859     0.14600
H2646       H  0.94045111  0.85078082  0.92785151     0.14400
C2647       C  0.90822216  0.58028138  0.96417233     0.86200
C2648       C  0.94389458  0.62914063  0.95337254    -0.54000
C2649       C  0.92496536  0.65326252  0.94708826     0.09100
C2650       C  0.86732000  0.62210528  0.95514085     0.20100
C2651       C  0.89235192  0.59451073  0.98610470    -0.54700
C2652       C  0.86626545  0.61041795  0.98216717     0.09200
C2653       C  0.86586076  0.55331097  0.94639291    -0.54300
C2654       C  0.83891274  0.57013312  0.94314994     0.09800
H2655       H  0.98187559  0.64745133  0.95572828     0.14300
H2656       H  0.84960880  0.63999749  0.95314309     0.00100
H2657       H  0.90023285  0.59087114  0.00454785     0.14600
H2658       H  0.87289718  0.54008325  0.93042039     0.14400
O2659       O  0.87862755  0.65930856  0.14003562    -0.82100
C2660       C  0.74587734  0.64703917  0.08004578     0.97300
O2661       O  0.75559244  0.61969457  0.08773000    -0.71200
O2662       O  0.81908423  0.60465526  0.09714938    -0.74800
Al2663     Al  0.78079144  0.61919287  0.11671619     1.49000
C2664       C  0.85068051  0.63265154  0.08201796     0.92500
O2665       O  0.90954882  0.76109345  0.09765491    -0.81000
O2666       O  0.85022942  0.76437482  0.14100631    -0.74600
Al2667     Al  0.88706704  0.70680508  0.11823034     1.90100
O2668       O  0.84439446  0.75774121  0.09265454    -0.73600
O2669       O  0.76546873  0.69199414  0.14478220    -0.73500
O2670       O  0.75527631  0.68288215  0.09293609    -0.79100
O2671       O  0.73232842  0.61800028  0.13538559    -0.77300
O2672       O  0.82448370  0.68279751  0.11723743    -1.13500
O2673       O  0.80124159  0.61345110  0.14650750    -0.72700
C2674       C  0.84301354  0.63286524  0.15394416     0.98000
C2675       C  0.88693006  0.77392466  0.08658982     0.94400
Al2676     Al  0.80490902  0.72092915  0.11771883     1.55600
O2677       O  0.88279992  0.67460016  0.08877753    -0.77300
C2678       C  0.73897870  0.64943710  0.15038543     0.98600
C2679       C  0.87660471  0.76013100  0.15463223     0.93500
O2680       O  0.89585034  0.74009138  0.14715883    -0.82600
C2681       C  0.95567817  0.77995612  0.94008452     0.02000
C2682       C  0.50986466  0.81156417  0.93131557     0.02000
C2683       C  0.53358001  0.78793116  0.92901350    -0.18500
C2684       C  0.51241541  0.73792518  0.93057242     0.02000
C2685       C  0.95924035  0.70754491  0.93973247     0.02000
C2686       C  0.93630892  0.73153412  0.94369183    -0.18500
H2687       H  0.90043866  0.71170873  0.95068349     0.04000
H2688       H  0.57152104  0.81046606  0.92575056     0.04000
C2689       C  0.69308760  0.76117132  0.92507360     0.02000
C2690       C  0.73024475  0.80686749  0.93584915     0.02000
C2691       C  0.76790585  0.80615446  0.94826466    -0.18500
C2692       C  0.77964855  0.77056841  0.94620678     0.02000
C2693       C  0.74241551  0.72585736  0.93486240     0.02000
C2694       C  0.70762548  0.72843184  0.92114888    -0.18500
H2695       H  0.68542981  0.69787586  0.90953404     0.04000
H2696       H  0.79204111  0.83824283  0.95867208     0.04000
C2697       C  0.99588864  0.75911449  0.29600975     0.86200
C2698       C  0.50366505  0.73280691  0.27691064    -0.54000
C2699       C  0.54966154  0.75105627  0.27061124     0.09100
C2700       C  0.58463663  0.80719215  0.28138827     0.20100
C2701       C  0.53291157  0.77514155  0.31528205    -0.54700
C2702       C  0.57826189  0.79818595  0.30866281     0.09200
C2703       C  0.51159662  0.80376412  0.28275495    -0.54300
C2704       C  0.55948042  0.83616905  0.27790866     0.09800
H2705       H  0.98176028  0.72328254  0.26083430     0.14300
H2706       H  0.62226137  0.82695821  0.27502624     0.00100
H2707       H  0.52378278  0.76946874  0.33456473     0.14600
H2708       H  0.98313847  0.80287982  0.27403001     0.14400
C2709       C  0.76123280  0.75709897  0.29501243     0.86200
C2710       C  0.78445717  0.80326900  0.28296549    -0.54000
C2711       C  0.76578144  0.82724101  0.28452854     0.09100
C2712       C  0.71077379  0.79105222  0.29468520     0.20100
C2713       C  0.73696737  0.75461715  0.31823446    -0.54700
C2714       C  0.71618262  0.77643622  0.32027123     0.09200
C2715       C  0.71716381  0.72607720  0.27898736    -0.54300
C2716       C  0.68558642  0.73941408  0.27939674     0.09800
H2717       H  0.79554137  0.80213949  0.26517828     0.14300
H2718       H  0.69006385  0.80657835  0.29600226     0.00100
H2719       H  0.73422457  0.73306225  0.33288161     0.14600
H2720       H  0.71854849  0.70577963  0.26456493     0.14400
C2721       C  0.74784872  0.52572965  0.29335582     0.86200
C2722       C  0.70587241  0.00488492  0.28195142    -0.54000
C2723       C  0.67451745  0.95631457  0.28101736     0.09100
C2724       C  0.70461676  0.93580290  0.28983089     0.20100
C2725       C  0.74252294  0.00082348  0.31792842    -0.54700
C2726       C  0.71523865  0.95437927  0.31633005     0.09200
C2727       C  0.77791705  0.01322876  0.27871331    -0.54300
C2728       C  0.75981538  0.96641977  0.27734319     0.09800
H2729       H  0.69097537  0.52331451  0.27524664     0.14300
H2730       H  0.68412874  0.89687266  0.28849851     0.00100
H2731       H  0.75582178  0.01793111  0.33542207     0.14600
H2732       H  0.78765192  0.53112752  0.26049002     0.14400
O2733       O  0.59098889  0.76958325  0.47059816    -0.82100
C2734       C  0.71704592  0.92449766  0.41675654     0.97300
O2735       O  0.68998074  0.92614278  0.43221804    -0.71200
O2736       O  0.61438282  0.84572799  0.41718625    -0.74800
Al2737     Al  0.63789140  0.87025235  0.44797366     1.49000
C2738       C  0.59800574  0.80537394  0.40776734     0.92500
O2739       O  0.67358395  0.77560822  0.42500675    -0.81000
O2740       O  0.72676583  0.84904271  0.48174045    -0.74600
Al2741     Al  0.63433111  0.77830364  0.44738188     1.90100
O2742       O  0.74526302  0.83751149  0.43289998    -0.73600
O2743       O  0.73375196  0.92481088  0.47215886    -0.73500
O2744       O  0.73990631  0.90774302  0.42276047    -0.79100
O2745       O  0.65864559  0.89488522  0.47987133    -0.77300
O2746       O  0.66787858  0.84120565  0.44877355    -1.13500
O2747       O  0.57908091  0.82275944  0.46261006    -0.72700
C2748       C  0.57187386  0.79033711  0.47572770     0.98000
C2749       C  0.71771028  0.79990158  0.42071367     0.94400
Al2750     Al  0.73182194  0.87700689  0.45215761     1.55600
O2751       O  0.59723586  0.77360765  0.41949276    -0.77300
C2752       C  0.70110272  0.91635411  0.48718593     0.98600
C2753       C  0.69496231  0.80821595  0.48930090     0.93500
O2754       O  0.66580628  0.77535635  0.47468705    -0.82600
C2755       C  0.65890974  0.59469637  0.24131373     0.86200
C2756       C  0.63658848  0.54656428  0.25243872    -0.54000
C2757       C  0.59002776  0.52293438  0.26075176     0.09100
C2758       C  0.57013006  0.55551098  0.25510478     0.20100
C2759       C  0.62474642  0.58291631  0.22155085    -0.54700
C2760       C  0.57927026  0.56324365  0.22731071     0.09200
C2761       C  0.65252830  0.62383016  0.26076678    -0.54300
C2762       C  0.60719542  0.61045423  0.26575433     0.09800
H2763       H  0.65269515  0.52806813  0.24989640     0.14300
H2764       H  0.53223505  0.53807853  0.26046149     0.00100
H2765       H  0.63614528  0.58887597  0.20250947     0.14600
H2766       H  0.67635466  0.63715187  0.27610755     0.14400
C2767       C  0.90044402  0.83992367  0.24072654     0.86200
C2768       C  0.87572329  0.85176681  0.25931931    -0.54000
C2769       C  0.89112431  0.89776817  0.26263987     0.09100
C2770       C  0.94469695  0.93053477  0.24957966     0.20100
C2771       C  0.90908367  0.86828831  0.21932240    -0.54700
C2772       C  0.93191516  0.91455173  0.22215711     0.09200
C2773       C  0.94991142  0.86286889  0.25083267    -0.54300
C2774       C  0.97642284  0.91050010  0.25691734     0.09800
H2775       H  0.86572867  0.83034070  0.27490111     0.14300
H2776       H  0.96450885  0.96915335  0.25237459     0.00100
H2777       H  0.90009972  0.85242600  0.20123752     0.14600
H2778       H  0.96399281  0.84215322  0.25142607     0.14400
C2779       C  0.89602626  0.60298043  0.24033824     0.86200
C2780       C  0.94214827  0.63790118  0.25464417    -0.54000
C2781       C  0.97183028  0.62324616  0.25821438     0.09100
C2782       C  0.94386464  0.56799413  0.24829008     0.20100
C2783       C  0.91539736  0.59305522  0.21831895    -0.54700
C2784       C  0.93937759  0.57474916  0.22132228     0.09200
C2785       C  0.87066319  0.56178527  0.25703219    -0.54300
C2786       C  0.88814023  0.53651067  0.25889374     0.09800
H2787       H  0.93726376  0.65404109  0.26997942     0.14300
H2788       H  0.96297464  0.55119599  0.24977620     0.00100
H2789       H  0.91124543  0.60175766  0.20004360     0.14600
H2790       H  0.85809532  0.56735862  0.27397620     0.14400
O2791       O  0.92282010  0.94476491  0.05466789    -0.82100
C2792       C  0.56124459  0.56189008  0.12601450     0.97300
O2793       O  0.56659812  0.53537439  0.11182412    -0.71200
O2794       O  0.98564386  0.95109261  0.11380298    -0.74800
Al2795     Al  0.51900936  0.98564045  0.08685923     1.49000
C2796       C  0.94243749  0.92835279  0.11985925     0.92500
O2797       O  0.91617102  0.50226304  0.11426262    -0.81000
O2798       O  0.99101451  0.57509919  0.05705263    -0.74600
Al2799     Al  0.91991419  0.97133455  0.08430252     1.90100
O2800       O  0.96774420  0.57721349  0.10600466    -0.73600
O2801       O  0.57435822  0.59112597  0.06893562    -0.73500
O2802       O  0.54579017  0.58424764  0.11788067    -0.79100
O2803       O  0.55703487  0.52088004  0.06090354    -0.77300
O2804       O  0.98567070  0.51486474  0.08678250    -1.13500
O2805       O  0.97924946  0.93604080  0.06315627    -0.72700
C2806       C  0.95335543  0.93740544  0.04758259     0.98000
C2807       C  0.93915690  0.54508860  0.12071472     0.94400
Al2808     Al  0.51925754  0.57797267  0.08743315     1.55600
O2809       O  0.91178338  0.92282602  0.10506102    -0.77300
C2810       C  0.57470510  0.56210119  0.05442211     0.98600
C2811       C  0.94815885  0.54754686  0.05045610     0.93500
O2812       O  0.91655368  0.51908325  0.06549663    -0.82600
C2813       C  0.56070820  0.71180282  0.26712614     0.02000
C2814       C  0.52697521  0.65826002  0.26504779     0.02000
C2815       C  0.54820455  0.63281141  0.26754998    -0.18500
C2816       C  0.59776549  0.65138234  0.26897239     0.02000
C2817       C  0.63115698  0.70496122  0.27131252     0.02000
C2818       C  0.61034993  0.73081229  0.26875581    -0.18500
H2819       H  0.63450079  0.76888746  0.26874406     0.04000
H2820       H  0.52428831  0.59525033  0.26895947     0.04000
C2821       C  0.79989426  0.88091955  0.27637321     0.02000
C2822       C  0.85294999  0.91053494  0.26916672    -0.01600
C2823       C  0.87412883  0.95954960  0.26625749    -0.18500
C2824       C  0.85112999  0.98318741  0.26707718     0.02000
C2825       C  0.79763210  0.95306268  0.27332936     0.02000
C2826       C  0.77658838  0.90432615  0.27772102    -0.18500
H2827       H  0.73917564  0.88274048  0.28268118     0.04000
H2828       H  0.91181694  0.98122563  0.26280602     0.04000
C2829       C  0.61924967  0.93781565  0.27859175     0.02000
C2830       C  0.57379892  0.89020389  0.27643655     0.02000
C2831       C  0.53248645  0.89362551  0.27625050    -0.18500
C2832       C  0.52944619  0.93115688  0.26702914     0.02000
C2833       C  0.57438088  0.97764100  0.26925563     0.02000
C2834       C  0.61186728  0.97621778  0.28031088    -0.18500
H2835       H  0.63689279  0.00836125  0.29037785     0.04000
H2836       H  0.49998480  0.86739008  0.28549323     0.04000
C2837       C  0.82766116  0.93425663  0.63211719     0.86200
C2838       C  0.83248449  0.89807603  0.61804911    -0.54000
C2839       C  0.87691230  0.91417892  0.60877624     0.09100
C2840       C  0.91503215  0.97165656  0.61617381     0.20100
C2841       C  0.86446373  0.95386240  0.65104232    -0.54700
C2842       C  0.90866741  0.96943202  0.64430201     0.09200
C2843       C  0.84727954  0.97656875  0.61553889    -0.54300
C2844       C  0.89492107  0.00323614  0.60870936     0.09800
H2845       H  0.80511060  0.86079790  0.61994156     0.14300
H2846       H  0.95248952  0.98793748  0.61013060     0.00100
H2847       H  0.85540902  0.95324318  0.67027135     0.14600
H2848       H  0.82569742  0.98821328  0.61252659     0.14400
C2849       C  0.58918207  0.69188290  0.63082456     0.86200
C2850       C  0.54064693  0.67120388  0.61944586    -0.54000
C2851       C  0.50935036  0.62251671  0.61676866     0.09100
C2852       C  0.53981162  0.60040852  0.62362007     0.20100
C2853       C  0.57951897  0.66390140  0.65286094    -0.54700
C2854       C  0.55382981  0.61753997  0.65058135     0.09200
C2855       C  0.61196198  0.67720793  0.61243121    -0.54300
C2856       C  0.59360220  0.63076021  0.60996480     0.09800
H2857       H  0.53469211  0.69577400  0.61199470     0.14300
H2858       H  0.51884846  0.56140290  0.62154281     0.00100
H2859       H  0.59232837  0.68066725  0.67077775     0.14600
H2860       H  0.61919257  0.69423191  0.59540866     0.14400
C2861       C  0.59391652  0.92696572  0.62905931     0.86200
C2862       C  0.61546580  0.96526003  0.61010977    -0.54000
C2863       C  0.59850969  0.99157513  0.60921702     0.09100
C2864       C  0.54617877  0.96235388  0.62289711     0.20100
C2865       C  0.58269181  0.94372678  0.65178264    -0.54700
C2866       C  0.55863746  0.96235241  0.64994498     0.09200
C2867       C  0.54295798  0.88871373  0.61979639    -0.54300
C2868       C  0.51595728  0.90553169  0.61443158     0.09800
H2869       H  0.62527531  0.95764295  0.59276530     0.14300
H2870       H  0.52736759  0.97940968  0.62205419     0.00100
H2871       H  0.58946735  0.93607943  0.66973448     0.14600
H2872       H  0.52792942  0.85148602  0.62077175     0.14400
O2873       O  0.91597218  0.93772563  0.80854782    -0.82100
C2874       C  0.54434051  0.57715784  0.75114405     0.97300
O2875       O  0.01560542  0.58061336  0.76551097    -0.71200
O2876       O  0.93503934  0.50610632  0.75281348    -0.74800
Al2877     Al  0.96051981  0.52993259  0.78309090     1.49000
C2878       C  0.92462336  0.97384158  0.74444253     0.92500
O2879       O  0.98472294  0.93506857  0.75775557    -0.81000
O2880       O  0.53433605  0.49232691  0.81669750    -0.74600
Al2881     Al  0.95282940  0.94041645  0.78337108     1.90100
O2882       O  0.54686233  0.47437428  0.76762186    -0.73600
O2883       O  0.55703732  0.57436716  0.80630685    -0.73500
O2884       O  0.55873334  0.55252096  0.75713032    -0.79100
O2885       O  0.98498024  0.55636443  0.81363409    -0.77300
O2886       O  0.98208463  0.49374153  0.78399222    -1.13500
O2887       O  0.90153167  0.48789207  0.80037378    -0.72700
C2888       C  0.90094078  0.96210028  0.81420548     0.98000
C2889       C  0.52896910  0.95690477  0.75274333     0.94400
Al2890     Al  0.54483425  0.52112005  0.78671065     1.55600
O2891       O  0.91455739  0.93950920  0.75754696    -0.77300
C2892       C  0.52678419  0.57352632  0.82052213     0.98600
C2893       C  0.50919124  0.96053405  0.82509817     0.93500
O2894       O  0.98481982  0.93182400  0.80887582    -0.82600
C2895       C  0.73787405  0.50128290  0.57191554     0.86200
C2896       C  0.70990416  0.51376708  0.58827360    -0.54000
C2897       C  0.72478022  0.56069531  0.58861607     0.09100
C2898       C  0.77870098  0.59237449  0.57431791     0.20100
C2899       C  0.74009846  0.52297972  0.54867919    -0.54700
C2900       C  0.76354798  0.56931409  0.54818095     0.09200
C2901       C  0.78574882  0.52928416  0.58363706    -0.54300
C2902       C  0.81432764  0.57715295  0.58326706     0.09800
H2903       H  0.69647637  0.49407465  0.60448877     0.14300
H2904       H  0.79683053  0.63118358  0.57425347     0.00100
H2905       H  0.72254598  0.50133326  0.53254359     0.14600
H2906       H  0.79472566  0.50834850  0.59201561     0.14400
C2907       C  0.99052257  0.76326032  0.56742569     0.86200
C2908       C  0.97478971  0.72142560  0.58339685    -0.54000
C2909       C  0.92804539  0.69561737  0.59174360     0.09100
C2910       C  0.90505666  0.72527232  0.58553709     0.20100
C2911       C  0.95093305  0.74139050  0.54903631    -0.54700
C2912       C  0.90788083  0.72790635  0.55715263     0.09200
C2913       C  0.98591052  0.79795153  0.58348168    -0.54300
C2914       C  0.94197884  0.78157137  0.59315506     0.09800
H2915       H  0.99748526  0.70930319  0.58489847     0.14300
H2916       H  0.86798847  0.70711846  0.59272169     0.00100
H2917       H  0.95814540  0.74256884  0.52957303     0.14600
H2918       H  0.01384984  0.83475772  0.58404383     0.14400
C2919       C  0.72680293  0.77407671  0.57264158     0.86200
C2920       C  0.77745125  0.80914731  0.58274293    -0.54000
C2921       C  0.80292049  0.79066339  0.58706366     0.09100
C2922       C  0.77131533  0.73421705  0.57761231     0.20100
C2923       C  0.73744360  0.75827006  0.54952222    -0.54700
C2924       C  0.75845221  0.73615793  0.55106324     0.09200
C2925       C  0.70243174  0.73203146  0.58934663    -0.54300
C2926       C  0.71893737  0.70453102  0.59049385     0.09800
H2927       H  0.79519892  0.84666758  0.58149443     0.14300
H2928       H  0.78979550  0.71670882  0.57786826     0.00100
H2929       H  0.73175812  0.76700109  0.53193061     0.14600
H2930       H  0.69124040  0.74003962  0.60562790     0.14400
O2931       O  0.91602648  0.70894450  0.40386592    -0.82100
C2932       C  0.78103767  0.72442457  0.45064018     0.97300
O2933       O  0.82411064  0.74976566  0.44461783    -0.71200
O2934       O  0.90139632  0.75567128  0.44468089    -0.74800
Al2935     Al  0.85885038  0.74879468  0.41942826     1.49000
C2936       C  0.88982876  0.72369162  0.45986365     0.92500
O2937       O  0.80658953  0.59935059  0.43310071    -0.81000
O2938       O  0.76144681  0.60470534  0.39231055    -0.74600
Al2939     Al  0.85681956  0.65816715  0.41882446     1.90100
O2940       O  0.75198189  0.61164924  0.44178854    -0.73600
O2941       O  0.76560850  0.68019125  0.38653329    -0.73500
O2942       O  0.75142563  0.68760346  0.43790214    -0.79100
O2943       O  0.82276496  0.75378191  0.39559359    -0.77300
O2944       O  0.82542964  0.68524906  0.41783292    -1.13500
O2945       O  0.89705670  0.75568351  0.39318575    -0.72700
C2946       C  0.91840659  0.73675041  0.38860845     0.98000
C2947       C  0.77283538  0.59229197  0.44661872     0.94400
Al2948     Al  0.76209308  0.64906345  0.41486425     1.55600
O2949       O  0.87511691  0.68238804  0.45188754    -0.77300
C2950       C  0.79417111  0.72256575  0.38039396     0.98600
C2951       C  0.79480353  0.61117853  0.37830266     0.93500
O2952       O  0.83721745  0.63277427  0.38629048    -0.82600
C2953       C  0.88881614  0.87591034  0.60283461     0.02000
C2954       C  0.85764938  0.82408267  0.59539756     0.02000
C2955       C  0.88024160  0.79971409  0.59511664    -0.18500
C2956       C  0.92926549  0.81875293  0.59961224     0.02000
C2957       C  0.96036762  0.87037983  0.60696338     0.02000
C2958       C  0.93703251  0.89404221  0.60845857    -0.18500
H2959       H  0.95670580  0.92868538  0.61614748     0.04000
H2960       H  0.85845213  0.76322358  0.59012376     0.04000
C2961       C  0.68396890  0.64851633  0.59616592     0.02000
C2962       C  0.63094272  0.61754312  0.60282813     0.02000
C2963       C  0.61014364  0.56821111  0.60441856    -0.18500
C2964       C  0.63344801  0.54444261  0.60200702     0.02000
C2965       C  0.68670972  0.57452193  0.59512786     0.02000
C2966       C  0.70723513  0.62427882  0.59293832    -0.18500
H2967       H  0.74467203  0.64573889  0.58858159     0.04000
H2968       H  0.57244985  0.54682631  0.60823071     0.04000
C2969       C  0.95533201  0.60390291  0.61068766     0.02000
C2970       C  0.91654556  0.55829692  0.60004160     0.02000
C2971       C  0.88213971  0.56191336  0.58657979    -0.18500
C2972       C  0.87025132  0.59745276  0.58876076     0.02000
C2973       C  0.90876089  0.64264395  0.59964810     0.02000
C2974       C  0.94441391  0.64005755  0.61253951    -0.18500
H2975       H  0.96689454  0.67097773  0.62397002     0.04000
H2976       H  0.86019255  0.53146273  0.57501670     0.04000
C2977       C  0.76766212  0.72373752  0.52675638    -0.00400
C2978       C  0.80768596  0.76252023  0.51531892    -0.12300
C2979       C  0.80823784  0.76940634  0.49046287     0.01800
C2980       C  0.76963925  0.73459527  0.47551043    -0.00500
C2981       C  0.72692009  0.69949238  0.48713423    -0.12200
C2982       C  0.72667014  0.69214757  0.51219472     0.01700
H2983       H  0.83660587  0.79055457  0.52642529     0.14700
H2984       H  0.69636805  0.67318419  0.47629629     0.14700
C2985       C  0.68336051  0.65244838  0.52291171     0.36300
C2986       C  0.84930724  0.81307071  0.48097010     0.36200
N2987       N  0.64854740  0.62035096  0.53125800    -0.44000
N2988       N  0.88247681  0.84820318  0.47370531    -0.44000
C2989       C  0.88388833  0.73890828  0.53883915    -0.00400
C2990       C  0.84781585  0.69945152  0.52637169    -0.12300
C2991       C  0.84831011  0.69740376  0.50092322     0.01800
C2992       C  0.88770738  0.73215785  0.48699415    -0.00500
C2993       C  0.91801097  0.77623912  0.49898762    -0.12200
C2994       C  0.91293372  0.78044849  0.52449255     0.01700
H2995       H  0.81861786  0.67106331  0.53674339     0.14700
H2996       H  0.94440413  0.80703820  0.48869505     0.14700
C2997       C  0.93959701  0.82655745  0.53608738     0.36300
C2998       C  0.80291876  0.67011493  0.49024495     0.36200
N2999       N  0.95952555  0.86376071  0.54528120    -0.44000
N3000       N  0.76443153  0.65009469  0.48336660    -0.44000
C3001       C  0.76992309  0.58408549  0.52248254    -0.00400
C3002       C  0.72677410  0.56589440  0.50974197    -0.12300
C3003       C  0.72316558  0.55584323  0.48459708     0.01800
C3004       C  0.76488918  0.57053122  0.47086070    -0.00500
C3005       C  0.80612704  0.58317965  0.48351454    -0.12200
C3006       C  0.80868032  0.58943769  0.50893188     0.01700
H3007       H  0.69468954  0.55585988  0.51994173     0.14700
H3008       H  0.83815635  0.59270191  0.47346085     0.14700
C3009       C  0.85165386  0.60135486  0.52074511     0.36300
C3010       C  0.67785805  0.53610204  0.47290647     0.36200
N3011       N  0.88632580  0.61084527  0.52990994    -0.44000
N3012       N  0.64147017  0.52011703  0.46356529    -0.44000
C3013       C  0.54226842  0.96694641  0.67467721    -0.00400
C3014       C  0.57997739  0.00176425  0.68992933    -0.12300
C3015       C  0.58034077  0.99611072  0.71511697     0.01800
C3016       C  0.54037226  0.95685898  0.72642110    -0.00500
C3017       C  0.50414145  0.92074044  0.71144488    -0.12200
C3018       C  0.50597070  0.92429884  0.68615015     0.01700
H3019       H  0.60719473  0.52235616  0.68301314     0.14700
H3020       H  0.97365587  0.88832306  0.71964671     0.14700
C3021       C  0.97535029  0.87936474  0.67252786     0.36300
C3022       C  0.61434417  0.51531656  0.72967264     0.36200
N3023       N  0.95260058  0.84311905  0.66236482    -0.44000
N3024       N  0.64843876  0.53819166  0.74133193    -0.44000
C3025       C  0.55394588  0.59529741  0.72605254    -0.00400
C3026       C  0.58143416  0.58757991  0.70982134    -0.12300
C3027       C  0.57938459  0.59090863  0.68459091     0.01800
C3028       C  0.54532026  0.59669487  0.67493896    -0.00500
C3029       C  0.52258808  0.61030293  0.69175351    -0.12200
C3030       C  0.52962966  0.61300381  0.71670795     0.01700
H3031       H  0.60687302  0.58209396  0.71699143     0.14700
H3032       H  0.50314095  0.62375933  0.68488990     0.14700
C3033       C  0.51609662  0.63853158  0.73189372     0.36300
C3034       C  0.61840503  0.59803935  0.66967546     0.36200
N3035       N  0.50659125  0.66017948  0.74395715    -0.44000
N3036       N  0.65067419  0.60505956  0.65817013    -0.44000
C3037       C  0.93617992  0.97564909  0.66616725    -0.00400
C3038       C  0.94213479  0.01322003  0.68032799    -0.12300
C3039       C  0.92654399  0.00685571  0.70453994     0.01800
C3040       C  0.91977174  0.96927993  0.71761166    -0.00500
C3041       C  0.91755302  0.93268972  0.70450249    -0.12200
C3042       C  0.92094979  0.93352819  0.67893160     0.01700
H3043       H  0.94359503  0.04097592  0.67069381     0.14700
H3044       H  0.90836506  0.90141498  0.71395604     0.14700
C3045       C  0.89373407  0.88758917  0.66680499     0.36300
C3046       C  0.90749974  0.03257160  0.71388371     0.36200
N3047       N  0.86975524  0.85018868  0.65789997    -0.44000
N3048       N  0.90922562  0.56202873  0.71975220    -0.44000
C3049       C  0.95342357  0.56479090  0.19769897    -0.00400
C3050       C  0.91462580  0.52302832  0.18709498    -0.12300
C3051       C  0.90463232  0.52002494  0.16245675     0.01800
C3052       C  0.93848955  0.55565361  0.14677146    -0.00500
C3053       C  0.97711163  0.59791955  0.15681824    -0.12200
C3054       C  0.98268976  0.60402025  0.18197780     0.01700
H3055       H  0.88606876  0.49764003  0.19897200     0.14700
H3056       H  0.00163899  0.62714472  0.14511644     0.14700
C3057       C  0.00965512  0.65259516  0.19105362     0.36300
C3058       C  0.85116099  0.97880674  0.15206915     0.36200
N3059       N  0.53027041  0.69103227  0.19927750    -0.44000
N3060       N  0.81296472  0.95016734  0.14515662    -0.44000
C3061       C  0.94134953  0.93473450  0.19739074    -0.00400
C3062       C  0.97216893  0.92692502  0.18369738    -0.12300
C3063       C  0.96500896  0.91385975  0.15912253     0.01800
C3064       C  0.93192556  0.91597932  0.14590492    -0.00500
C3065       C  0.89846932  0.91973905  0.15894064    -0.12200
C3066       C  0.90099888  0.92576125  0.18450121     0.01700
H3067       H  0.99619379  0.92191009  0.19334374     0.14700
H3068       H  0.86897665  0.91514361  0.14923636     0.14700
C3069       C  0.85734142  0.91178218  0.19745582     0.36300
C3070       C  0.98854428  0.89376229  0.14801831     0.36200
N3071       N  0.82250833  0.90045466  0.20790394    -0.44000
N3072       N  0.00647770  0.87699347  0.13880475    -0.44000
C3073       C  0.55201592  0.55401798  0.20480168    -0.00400
C3074       C  0.55036421  0.51889401  0.19002544    -0.12300
C3075       C  0.56151548  0.52491436  0.16504986     0.01800
C3076       C  0.56590819  0.56239073  0.15296849    -0.00500
C3077       C  0.56736487  0.59757191  0.16725257    -0.12200
C3078       C  0.56327734  0.59508363  0.19269980     0.01700
H3079       H  0.55281127  0.49298281  0.19910597     0.14700
H3080       H  0.57538252  0.62915473  0.15860034     0.14700
C3081       C  0.58467478  0.63978591  0.20578953     0.36300
C3082       C  0.57782134  0.49839297  0.15353072     0.36200
N3083       N  0.60381196  0.67640177  0.21557943    -0.44000
N3084       N  0.59290172  0.47872860  0.14450362    -0.44000
C3085       C  0.72742686  0.95611828  0.56322560    -0.00400
C3086       C  0.76451726  0.96059697  0.54816187    -0.12300
C3087       C  0.75817749  0.95249174  0.52304759     0.01800
C3088       C  0.71148802  0.92822808  0.51355417    -0.00500
C3089       C  0.67313778  0.90953584  0.53041259    -0.12200
C3090       C  0.68110348  0.92215226  0.55525513     0.01700
H3091       H  0.80060358  0.48002264  0.55359731     0.14700
H3092       H  0.63745653  0.88492576  0.52418318     0.14700
C3093       C  0.64435413  0.89511501  0.57307575     0.36300
C3094       C  0.80030744  0.97095191  0.50788183     0.36200
N3095       N  0.61560211  0.87219741  0.58761255    -0.44000
N3096       N  0.83421577  0.98607999  0.49582044    -0.44000
C3097       C  0.68956173  0.80093909  0.51602048    -0.00400
C3098       C  0.71934345  0.84002801  0.53176055    -0.12300
C3099       C  0.71725082  0.83411688  0.55686084     0.01800
C3100       C  0.69390046  0.78864788  0.56559051    -0.00500
C3101       C  0.65307825  0.75323997  0.55214286    -0.12200
C3102       C  0.65357386  0.75733238  0.52676389     0.01700
H3103       H  0.74581130  0.87414910  0.52452357     0.14700
H3104       H  0.63060340  0.71779288  0.55898904     0.14700
C3105       C  0.62581858  0.71397136  0.51252140     0.36300
C3106       C  0.74149667  0.87323303  0.57377662     0.36200
N3107       N  0.60514123  0.67887173  0.50126892    -0.44000
N3108       N  0.75920548  0.90303438  0.58845607    -0.44000
C3109       C  0.53532871  0.78384361  0.55077927    -0.00400
C3110       C  0.53874315  0.74847764  0.53929227    -0.12300
C3111       C  0.54054424  0.74535303  0.51399756     0.01800
C3112       C  0.55001770  0.78301286  0.49987095    -0.00500
C3113       C  0.55321611  0.82130473  0.51117034    -0.12200
C3114       C  0.54797314  0.82322584  0.53620042     0.01700
H3115       H  0.03135891  0.71934423  0.54972917     0.14700
H3116       H  0.56261866  0.85153188  0.50056261     0.14700
C3117       C  0.55416143  0.86603359  0.54542914     0.36300
C3118       C  0.52589851  0.70069813  0.50254650     0.36200
N3119       N  0.56057373  0.90133617  0.55226493    -0.44000
N3120       N  0.51300415  0.66505924  0.49281571    -0.44000
C3121       C  0.76840448  0.57649816  0.30124784    -0.00400
C3122       C  0.73644242  0.58140030  0.31560265    -0.12300
C3123       C  0.74237126  0.58847856  0.34090656     0.01800
C3124       C  0.78432552  0.59707127  0.35189945    -0.00500
C3125       C  0.82079871  0.60275487  0.33587427    -0.12200
C3126       C  0.81433575  0.60009394  0.31035293     0.01700
H3127       H  0.70262498  0.57095790  0.30805709     0.14700
H3128       H  0.85566154  0.61607540  0.34293450     0.14700
C3129       C  0.85030116  0.63448059  0.29419699     0.36300
C3130       C  0.70498568  0.58740468  0.35454632     0.36200
N3131       N  0.87455948  0.66314961  0.28018680    -0.44000
N3132       N  0.67466417  0.58621894  0.36525042    -0.44000
C3133       C  0.70063370  0.93305893  0.34028376    -0.00400
C3134       C  0.72262081  0.91282645  0.34841392    -0.12300
C3135       C  0.72360568  0.90752445  0.37312151     0.01800
C3136       C  0.71532867  0.93293333  0.39049806    -0.00500
C3137       C  0.69221212  0.95295254  0.38255482    -0.12200
C3138       C  0.68209148  0.95040356  0.35776667     0.01700
H3139       H  0.73381280  0.89646223  0.33548155     0.14700
H3140       H  0.67953373  0.96767393  0.39560869     0.14700
C3141       C  0.65307752  0.96587298  0.35016221     0.36300
C3142       C  0.70412900  0.86080798  0.37907799     0.36200
N3143       N  0.63311727  0.48096472  0.34498492    -0.44000
N3144       N  0.68141506  0.82194367  0.38433276    -0.44000
C3145       C  0.79766474  0.73446331  0.35443662    -0.00400
C3146       C  0.82678066  0.78135524  0.34728108    -0.12300
C3147       C  0.83273287  0.79167897  0.32249415     0.01800
C3148       C  0.80041349  0.75402448  0.30505219    -0.00500
C3149       C  0.78291233  0.70817951  0.31197121    -0.12200
C3150       C  0.78731107  0.70051597  0.33615047     0.01700
H3151       H  0.84403576  0.80968960  0.36089923     0.14700
H3152       H  0.76192500  0.67825017  0.29955299     0.14700
C3153       C  0.82217522  0.69209245  0.33632262     0.36300
C3154       C  0.86000954  0.84188674  0.31830928     0.36200
N3155       N  0.85570913  0.69259135  0.33527298    -0.44000
N3156       N  0.88244015  0.88264700  0.31658601    -0.44000
C3157       C  0.73260891  0.78819690  0.39735470    -0.00400
C3158       C  0.69579168  0.74585953  0.38602766    -0.12300
C3159       C  0.68404160  0.74447914  0.36173027     0.01800
C3160       C  0.71277291  0.78512688  0.34672819    -0.00500
C3161       C  0.75621722  0.82364502  0.35716196    -0.12200
C3162       C  0.76673118  0.82489117  0.38198929     0.01700
H3163       H  0.67186259  0.71520888  0.39708629     0.14700
H3164       H  0.78285348  0.85202280  0.34560033     0.14700
C3165       C  0.81090651  0.86542286  0.39158483     0.36300
C3166       C  0.64819395  0.69791033  0.35178123     0.36200
N3167       N  0.84666903  0.89771181  0.39921608    -0.44000
N3168       N  0.62087826  0.65982365  0.34430351    -0.44000
C3169       C  0.95120411  0.73682993  0.31214198    -0.00400
C3170       C  0.94554188  0.77127337  0.32274860    -0.12300
C3171       C  0.94377235  0.77651765  0.34797795     0.01800
C3172       C  0.93844064  0.74180796  0.36359804    -0.00500
C3173       C  0.93756701  0.70362847  0.35300803    -0.12200
C3174       C  0.94151905  0.69942206  0.32760592     0.01700
H3175       H  0.94952489  0.79868631  0.31171359     0.14700
H3176       H  0.93185386  0.67586129  0.36447476     0.14700
C3177       C  0.94606036  0.66220738  0.31899498     0.36300
C3178       C  0.94641423  0.81770558  0.35707155     0.36200
N3179       N  0.94918979  0.63165649  0.31295027    -0.44000
N3180       N  0.94853988  0.85080251  0.36415367    -0.44000
C3181       C  0.60864964  0.81104430  0.33010139    -0.00400
C3182       C  0.60728987  0.84489742  0.34434423    -0.12300
C3183       C  0.59273043  0.83706359  0.36871515     0.01800
C3184       C  0.58862705  0.79989583  0.38115602    -0.00500
C3185       C  0.59082115  0.76616765  0.36743956    -0.12200
C3186       C  0.60141061  0.77168710  0.34242206     0.01700
H3187       H  0.60555159  0.87104292  0.33498088     0.14700
H3188       H  0.58613575  0.73628086  0.37643896     0.14700
C3189       C  0.58874227  0.72946200  0.32908257     0.36300
C3190       C  0.57631391  0.86393427  0.37978817     0.36200
N3191       N  0.57529209  0.69398778  0.31908601    -0.44000
N3192       N  0.56228139  0.88473024  0.38857106    -0.44000
C3193       C  0.84891010  0.62468704  0.17940989    -0.00400
C3194       C  0.82247541  0.57860051  0.18782514    -0.12300
C3195       C  0.82523793  0.57026190  0.21225811     0.01800
C3196       C  0.86124492  0.60949253  0.22770927    -0.00500
C3197       C  0.88097927  0.65507569  0.21942302    -0.12200
C3198       C  0.86588097  0.66057816  0.19737108     0.01700
H3199       H  0.80153717  0.54914293  0.17509879     0.14700
H3200       H  0.90556196  0.68583099  0.23069658     0.14700
C3201       C  0.83459145  0.67400011  0.20287119     0.36300
C3202       C  0.80416376  0.52097534  0.21703326     0.36200
N3203       N  0.80862081  0.68219679  0.21078838    -0.44000
N3204       N  0.78710889  0.48119861  0.21995081    -0.44000
C3205       C  0.87807615  0.77163891  0.18066111    -0.00400
C3206       C  0.83811528  0.76895842  0.19034381    -0.12300
C3207       C  0.83349444  0.77479278  0.21527399     0.01800
C3208       C  0.87325472  0.78906133  0.23055009    -0.00500
C3209       C  0.90389963  0.77647272  0.22191155    -0.12200
C3210       C  0.91091715  0.77416157  0.19688419     0.01700
H3211       H  0.81117392  0.76431965  0.17827921     0.14700
H3212       H  0.92728219  0.77524113  0.23419845     0.14700
C3213       C  0.94947455  0.77076071  0.18877762     0.36300
C3214       C  0.79724638  0.78265338  0.22140581     0.36200
N3215       N  0.97984175  0.76715172  0.18240079    -0.44000
N3216       N  0.76749179  0.78886018  0.22417157    -0.44000
C3217       C  0.72290766  0.63777007  0.17595223    -0.00400
C3218       C  0.72142199  0.60028404  0.18616353    -0.12300
C3219       C  0.71524765  0.59266620  0.21122604     0.01800
C3220       C  0.70630357  0.62059829  0.22687022    -0.00500
C3221       C  0.71671834  0.66324948  0.21682447    -0.12200
C3222       C  0.72019849  0.66932208  0.19157713     0.01700
H3223       H  0.72658993  0.57745405  0.17466200     0.14700
H3224       H  0.70920190  0.68517777  0.22730568     0.14700
C3225       C  0.71483405  0.70451591  0.18202706     0.36300
C3226       C  0.71676178  0.55479367  0.21990557     0.36200
N3227       N  0.71013943  0.73243924  0.17442476    -0.44000
N3228       N  0.71744641  0.52360702  0.22623263    -0.44000
C3229       C  0.92187232  0.54935942  0.97474180    -0.00400
C3230       C  0.88516332  0.51174288  0.98906104    -0.12300
C3231       C  0.89130822  0.51265215  0.01429006     0.01800
C3232       C  0.93703405  0.54614493  0.02440883    -0.00500
C3233       C  0.97556595  0.57430567  0.00829940    -0.12200
C3234       C  0.96813675  0.57265706  0.98344830     0.01700
H3235       H  0.84919626  0.48929308  0.98192735     0.14700
H3236       H  0.01140177  0.59769160  0.01499558     0.14700
C3237       C  0.00718549  0.59377172  0.96659686     0.36300
C3238       C  0.85044975  0.47923978  0.02904300     0.36200
N3239       N  0.03718587  0.60909659  0.95210550    -0.44000
N3240       N  0.81783695  0.45254280  0.04096551    -0.44000
C3241       C  0.83969667  0.60920018  0.00393446    -0.00400
C3242       C  0.85763418  0.65278558  0.01440369    -0.12300
C3243       C  0.85732596  0.65737804  0.03940573     0.01800
C3244       C  0.84606352  0.62119288  0.05520694    -0.00500
C3245       C  0.82258493  0.57542796  0.04498420    -0.12200
C3246       C  0.81742132  0.56899672  0.01946986     0.01700
H3247       H  0.87068585  0.68300026  0.00296245     0.14700
H3248       H  0.80828176  0.54527709  0.05659083     0.14700
C3249       C  0.79254346  0.52156861  0.00918679     0.36300
C3250       C  0.84537283  0.68773076  0.04733942     0.36200
N3251       N  0.77173400  0.48359479  0.00082260    -0.44000
N3252       N  0.82930112  0.70775714  0.05304911    -0.44000
C3253       C  0.95363081  0.91165000  0.97034179    -0.00400
C3254       C  0.99210967  0.91865354  0.98449542    -0.12300
C3255       C  0.99165728  0.92456614  0.01004275     0.01800
C3256       C  0.96055543  0.93499696  0.02068263    -0.00500
C3257       C  0.93501153  0.94380561  0.00471744    -0.12200
C3258       C  0.93463450  0.93580261  0.97952096     0.01700
H3259       H  0.01007720  0.90258077  0.97863061     0.14700
H3260       H  0.91153990  0.95216323  0.01210626     0.14700
C3261       C  0.90632038  0.94263584  0.96395691     0.36300
C3262       C  0.01316376  0.90758444  0.02459033     0.36200
N3263       N  0.88368726  0.94678973  0.95052294    -0.44000
N3264       N  0.53181040  0.89381831  0.03547351    -0.44000
C3265       C  0.87539899  0.77512412  0.01247972    -0.00400
C3266       C  0.91546669  0.77753318  0.02125894    -0.12300
C3267       C  0.92920878  0.78838129  0.04597291     0.01800
C3268       C  0.90325966  0.79804670  0.06256666    -0.00500
C3269       C  0.87147605  0.80663089  0.05263699    -0.12200
C3270       C  0.85383310  0.79078815  0.02907083     0.01700
H3271       H  0.93685808  0.77211224  0.00859121     0.14700
H3272       H  0.85394237  0.81803178  0.06458053     0.14700
C3273       C  0.81990835  0.79980987  0.02079973     0.36300
C3274       C  0.96686775  0.78507594  0.05427016     0.36200
N3275       N  0.79335115  0.80758494  0.01402572    -0.44000
N3276       N  0.99713077  0.78259495  0.06103337    -0.44000
C3277       C  0.58790357  0.57243731  0.02842219    -0.00400
C3278       C  0.59518186  0.61273925  0.01868827    -0.12300
C3279       C  0.60272322  0.62076447  0.99372542     0.01800
C3280       C  0.60318383  0.58710159  0.97748754    -0.00500
C3281       C  0.58280046  0.54181000  0.98711187    -0.12200
C3282       C  0.58464576  0.53802161  0.01230469     0.01700
H3283       H  0.59635274  0.63894127  0.03071417     0.14700
H3284       H  0.58215038  0.51531826  0.97573911     0.14700
C3285       C  0.59942089  0.50901547  0.02043063     0.36300
C3286       C  0.61694039  0.66725203  0.98691029     0.36200
N3287       N  0.61826453  0.99118795  0.02629498    -0.44000
N3288       N  0.62843642  0.70482825  0.98202321    -0.44000
C3289       C  0.75461112  0.64641510  0.00238595    -0.00400
C3290       C  0.75602243  0.68335282  0.01544401    -0.12300
C3291       C  0.74064660  0.67852510  0.03996609     0.01800
C3292       C  0.73320281  0.64087775  0.05361350    -0.00500
C3293       C  0.73181947  0.60406577  0.04076707    -0.12200
C3294       C  0.74194331  0.60621817  0.01584976     0.01700
H3295       H  0.75971679  0.71142168  0.00511004     0.14700
H3296       H  0.72335224  0.57316312  0.05037103     0.14700
C3297       C  0.72582773  0.56180145  0.00352640     0.36300
C3298       C  0.73617786  0.71420411  0.05119595     0.36200
N3299       N  0.71079065  0.52577241  0.99369289    -0.44000
N3300       N  0.73245434  0.74262597  0.06034769    -0.44000
C3301       C  0.76973416  0.91892718  0.69954301    -0.00400
C3302       C  0.77082315  0.95100389  0.68420535    -0.12300
C3303       C  0.77598545  0.94934866  0.65916079     0.01800
C3304       C  0.78276490  0.91555798  0.64813746    -0.00500
C3305       C  0.77223355  0.87773194  0.66339638    -0.12200
C3306       C  0.77111289  0.88214862  0.68888480     0.01700
H3307       H  0.76895112  0.97919377  0.69200296     0.14700
H3308       H  0.77594713  0.85041767  0.65632081     0.14700
C3309       C  0.77799742  0.85263693  0.70348374     0.36300
C3310       C  0.78108100  0.98800832  0.64678899     0.36200
N3311       N  0.78425981  0.82945992  0.71514891    -0.44000
N3312       N  0.78608554  0.02095134  0.63853978    -0.44000
C3313       C  0.62747389  0.77343293  0.69169876    -0.00400
C3314       C  0.66383106  0.77324984  0.67964029    -0.12300
C3315       C  0.65971939  0.75795752  0.65543965     0.01800
C3316       C  0.61685085  0.74201184  0.64212447    -0.00500
C3317       C  0.58561359  0.75223462  0.65316321    -0.12200
C3318       C  0.58736941  0.76201905  0.67820140     0.01700
H3319       H  0.69379758  0.78040452  0.69003058     0.14700
H3320       H  0.55420427  0.74380609  0.64367117     0.14700
C3321       C  0.54701465  0.75930502  0.68923323     0.36300
C3322       C  0.69183580  0.74460363  0.64931122     0.36200
N3323       N  0.51410871  0.75628649  0.69789149    -0.44000
N3324       N  0.71832440  0.73414368  0.64621887    -0.44000
C3325       C  0.64836663  0.90524642  0.68517771    -0.00400
C3326       C  0.67646037  0.95096093  0.67638570    -0.12300
C3327       C  0.67018307  0.95852772  0.65242776     0.01800
C3328       C  0.62952002  0.91921838  0.63905452    -0.00500
C3329       C  0.60931581  0.87350619  0.64743992    -0.12200
C3330       C  0.62874634  0.86806950  0.66764988     0.01700
H3331       H  0.69740439  0.98081587  0.68888440     0.14700
H3332       H  0.58235931  0.84253808  0.63702189     0.14700
C3333       C  0.66045865  0.85753373  0.65711923     0.36300
C3334       C  0.69049681  0.00779740  0.64796072     0.36200
N3335       N  0.68296529  0.84954970  0.64477931    -0.44000
N3336       N  0.70667925  0.04755941  0.64568755    -0.44000
C3337       C  0.55112132  0.61704975  0.89551644    -0.00400
C3338       C  0.58808634  0.61833971  0.88198211    -0.12300
C3339       C  0.58255677  0.60758153  0.85697786     0.01800
C3340       C  0.53736407  0.58836822  0.84642051    -0.00500
C3341       C  0.49827514  0.57425499  0.86223109    -0.12200
C3342       C  0.50516884  0.58580154  0.88692652     0.01700
H3343       H  0.62374512  0.63701330  0.88925402     0.14700
H3344       H  0.96233378  0.55475236  0.85572633     0.14700
C3345       C  0.46779358  0.55893229  0.90429845     0.36300
C3346       C  0.62334657  0.61685444  0.84292520     0.36200
N3347       N  0.93933320  0.53396371  0.91914627    -0.44000
N3348       N  0.65577244  0.62389999  0.83154776    -0.44000
C3349       C  0.60620049  0.75888053  0.86072167    -0.00400
C3350       C  0.64684037  0.76981485  0.84752497    -0.12300
C3351       C  0.64772584  0.77152391  0.82226202     0.01800
C3352       C  0.60910194  0.76685532  0.81002506    -0.00500
C3353       C  0.56795004  0.75454754  0.82317323    -0.12200
C3354       C  0.56525290  0.74800166  0.84802614     0.01700
H3355       H  0.67618635  0.77303224  0.85688088     0.14700
H3356       H  0.53753608  0.74932764  0.81394281     0.14700
C3357       C  0.51909063  0.72618692  0.85998361     0.36300
C3358       C  0.68825042  0.77702759  0.80966907     0.36200
N3359       N  0.48214163  0.70759139  0.86963105    -0.44000
N3360       N  0.72047457  0.78062486  0.79972946    -0.44000
C3361       C  0.85698178  0.95167350  0.88881444    -0.00400
C3362       C  0.86694176  0.92052155  0.87825226    -0.12300
C3363       C  0.87122671  0.91824933  0.85315740     0.01800
C3364       C  0.87975798  0.95542362  0.83869968    -0.00500
C3365       C  0.87905016  0.99186394  0.84975274    -0.12200
C3366       C  0.86831980  0.99090819  0.87446262     0.01700
H3367       H  0.86096450  0.89122307  0.88826894     0.14700
H3368       H  0.88707306  0.02148049  0.83905810     0.14700
C3369       C  0.86223168  0.02717150  0.88284783     0.36300
C3370       C  0.85848701  0.87368310  0.84246648     0.36200
N3371       N  0.85777614  0.05721049  0.88804859    -0.44000
N3372       N  0.84630845  0.83738571  0.83386135    -0.44000
C3373       C  0.71059360  0.91434504  0.87493646    -0.00400
C3374       C  0.74346483  0.95799298  0.86303780    -0.12300
C3375       C  0.74944703  0.95914139  0.83737793     0.01800
C3376       C  0.71883098  0.91748989  0.82331916    -0.00500
C3377       C  0.67767413  0.88018602  0.83527868    -0.12200
C3378       C  0.67367347  0.87949194  0.86078829     0.01700
H3379       H  0.76974792  0.98833758  0.87387872     0.14700
H3380       H  0.64806642  0.85271273  0.82465673     0.14700
C3381       C  0.62980078  0.84737658  0.87306998     0.36300
C3382       C  0.78808812  0.00212563  0.82629843     0.36200
N3383       N  0.59339916  0.82360872  0.88293446    -0.44000
N3384       N  0.81895523  0.03682031  0.81746247    -0.44000
C3385       C  0.50588785  0.94010640  0.90189088    -0.00400
C3386       C  0.46983710  0.90144045  0.88701400    -0.12300
C3387       C  0.46926946  0.90677114  0.86183737     0.01800
C3388       C  0.50011281  0.95216000  0.85191332    -0.00500
C3389       C  0.52346913  0.99118553  0.86857869    -0.12200
C3390       C  0.52199717  0.98451568  0.89376771     0.01700
H3391       H  0.45433415  0.86543127  0.89197048     0.14700
H3392       H  0.53692534  0.51902961  0.85945845     0.14700
C3393       C  0.54189828  0.02247309  0.91138250     0.36300
C3394       C  0.44485297  0.86436613  0.84670916     0.36200
N3395       N  0.55541707  0.05042315  0.92695066    -0.44000
N3396       N  0.93123738  0.83269971  0.83376108    -0.44000
C3397       C  0.60231488  0.90703193  0.80912361    -0.00400
C3398       C  0.56500948  0.86628338  0.82082558    -0.12300
C3399       C  0.56165446  0.86507001  0.84628095     0.01800
C3400       C  0.59866062  0.90305671  0.86068627    -0.00500
C3401       C  0.63528442  0.94390966  0.84893047    -0.12200
C3402       C  0.63596043  0.94712683  0.82373477     0.01700
H3403       H  0.53854807  0.83539175  0.81016957     0.14700
H3404       H  0.66092859  0.97505623  0.85974602     0.14700
C3405       C  0.67142444  0.99272455  0.81348028     0.36300
C3406       C  0.51816117  0.82640539  0.85745632     0.36200
N3407       N  0.69976059  0.02919363  0.80523030    -0.44000
N3408       N  0.48325761  0.79633268  0.86677933    -0.44000
loop_ 
_geom_bond_atom_site_label_1 
_geom_bond_atom_site_label_2 
_geom_bond_distance 
_geom_bond_site_symmetry_2 
_ccdc_geom_bond_type 
C1            C2   1.552       .  S
C1            C7   1.498       .  S
C1            C5   1.489       .  S
C1          C829   1.549       .  S
C2            H9   1.067       .  S
C2            C3   1.397       .  D
C3            C4   1.664       .  S
C3           C60   1.617       .  S
C4            C8   1.636       .  S
C4            C6   1.553       .  S
C4           H10   1.096       .  S
C5           H11   1.088       .  S
C5            C6   1.304       .  D
C6          C844   1.473       .  S
C7           H12   1.060       .  S
C7            C8   1.320       .  D
C8          C126   1.614       .  S
C13          C14   1.504       .  S
C13          C19   1.547       .  S
C13          C17   1.506       .  S
C13         C805   1.528       .  S
C14          H21   1.077       .  S
C14          C15   1.373       .  D
C15          C16   1.684       .  S
C15         C134   1.615       .  S
C16          C20   1.626       .  S
C16          C18   1.569       .  S
C16          H22   1.106       .  S
C17          H23   1.092       .  S
C17          C18   1.325       .  D
C18         C817   1.511       .  S
C19          H24   1.074       .  S
C19          C20   1.361       .  D
C20          C62   1.619       .  S
C25          C26   1.537       .  S
C25          C31   1.514       .  S
C25          C29   1.480       .  S
C25         C781   1.527       .  S
C26          H33   1.076   1_455  S
C26          C27   1.386       .  D
C27          C28   1.688       .  S
C27         C128   1.637       .  S
C28          C32   1.628       .  S
C28          C30   1.570       .  S
C28          H34   1.102       .  S
C29          H35   1.087       .  S
C29          C30   1.313       .  D
C30         C793   1.468       .  S
C31          H36   1.055       .  S
C31          C32   1.364       .  D
C32         C133   1.626       .  S
O37          C52   1.270       .  A
O37         Al45   1.921       .  S
C38          O48   1.258       .  A
C38          O39   1.261       .  A
C38         C796   1.472       .  S
O39         Al41   1.883       .  S
O40          C42   1.267       .  A
O40         Al41   1.942       .  S
Al41         O49   1.923       .  S
Al41         O51   1.890       .  S
Al41         O50   1.779       .  S
C42          O55   1.240       .  A
C42         C841   1.486       .  S
O43          C53   1.274       .  A
O43         Al45   1.947       .  S
O44          C57   1.261       .  A
O44         Al54   1.921       .  S
Al45         O58   1.833       .  S
Al45         O55   1.810       .  S
Al45         O50   1.788       .  S
O46          C53   1.266       .  A
O46         Al54   1.911       .  S
O47          C56   1.266       .  A
O47         Al54   1.889       .  S
O48         Al54   1.909       .  S
O49          C56   1.266       .  A
O50         Al54   1.775       .  S
O51          C52   1.258       .  A
C52         C769   1.492       .  S
C53         C820   1.510       .  S
C56         C757   1.483       .  S
C57          O58   1.244       .  A
C57         C745   1.487       .  S
C59          C69   1.642       .  S
C59          C64   1.436       .  A
C59         C912   1.522   1_545  A
C60          C61   1.446       .  A
C60         C911   1.522       .  A
C61          C62   1.434       .  A
C61          H66   1.066       .  S
C62         C915   1.502       .  A
C63          C98   1.590       .  S
C63          C64   1.448       .  A
C63         C914   1.499   1_545  A
C64          H65   1.069       .  S
C67          C68   1.562       .  S
C67          C73   1.496       .  S
C67          C71   1.478       .  S
C67         C724   1.550       .  S
C68          H75   1.072       .  S
C68          C69   1.374       .  D
C69          C70   1.663       .  S
C70          C74   1.653       .  S
C70          C72   1.556       .  S
C70          H76   1.104       .  S
C71          H77   1.090   1_556  S
C71          C72   1.325       .  D
C72         C733   1.476   1_556  S
C73          H78   1.048       .  S
C73          C74   1.362       .  D
C74         C137   1.610       .  S
C79          C80   1.523       .  S
C79          C85   1.493       .  S
C79          C83   1.482       .  S
C79         C697   1.551       .  S
C80          H87   1.071       .  S
C80          C81   1.396       .  D
C81          C82   1.684       .  S
C81         C136   1.625       .  S
C82          C86   1.668       .  S
C82          C84   1.564       .  S
C82          H88   1.105       .  S
C83          H89   1.075   1_556  S
C83          C84   1.314       .  D
C84         C709   1.497   1_556  S
C85          H90   1.064       .  S
C85          C86   1.324       .  D
C86         C125   1.635       .  S
C91          C92   1.532       .  S
C91          C97   1.543       .  S
C91          C95   1.491       .  S
C91         C673   1.524       .  S
C92          H99   1.076       .  S
C92          C93   1.370       .  D
C93          C94   1.663       .  S
C93         C129   1.593       .  S
C94          C98   1.591       .  S
C94          C96   1.554       .  S
C94         H100   1.097       .  S
C95         H101   1.090   1_556  S
C95          C96   1.311       .  D
C96         C685   1.469   1_556  S
C97         H102   1.063       .  S
C97          C98   1.357       .  D
O103        C118   1.267       .  A
O103       Al111   1.926       .  S
C104        O114   1.278       .  A
C104        O105   1.256       .  A
C104        C736   1.506       .  S
O105       Al107   1.853       .  S
O106        C108   1.263       .  A
O106       Al107   1.936       .  S
Al107       O115   1.904       .  S
Al107       O117   1.855       .  S
Al107       O116   1.818       .  S
C108        O121   1.262       .  A
C108        C688   1.502       .  S
O109        C119   1.265       .  A
O109       Al111   1.957       .  S
O110        C123   1.264       .  A
O110       Al120   1.901       .  S
Al111       O124   1.876       .  S
Al111       O121   1.894       .  S
Al111       O116   1.798       .  S
O112        C119   1.256       .  A
O112       Al120   1.833       .  S
O113        C122   1.242       .  A
O113       Al120   1.841       .  S
O114       Al120   1.970       .  S
O115        C122   1.257       .  A
O116       Al120   1.785       .  S
O117        C118   1.248       .  A
C118        C637   1.471       .  S
C119        C712   1.505       .  S
C122        C661   1.476       .  S
C123        O124   1.255       .  A
C123        C649   1.480       .  S
C125        C130   1.420       .  A
C125       C1830   1.534       .  A
C126        C127   1.442       .  A
C126       C1829   1.534   1_455  A
C127        C128   1.439       .  A
C127        H132   1.072       .  S
C128       C1833   1.522   1_455  A
C129        C130   1.441       .  A
C129       C1832   1.522       .  A
C130        H131   1.071       .  S
C133        C134   1.453       .  A
C133        C138   1.479       .  A
C134        C135   1.482       .  A
C135        C136   1.492       .  A
C135        H140   1.080       .  S
C136        C137   1.454       .  A
C137        C138   1.474       .  A
C138        H139   1.074       .  S
C141       C1846   1.528       .  S
C141       C1851   1.534       .  S
C141       C1849   1.474       .  S
C141        C613   1.534       .  S
C142       C1845   1.525   1_455  S
C142       H1853   1.064   1_455  S
C142        C143   1.366       .  D
C143        C144   1.655       .  S
C143        C257   1.593       .  S
C144        C148   1.639       .  S
C144        C146   1.559       .  S
C144        H150   1.105       .  S
C145       C1845   1.474   1_455  S
C145        H151   1.095       .  S
C145        C146   1.321       .  D
C146        C625   1.485       .  S
C147       C1845   1.536   1_455  S
C147       H1856   1.069   1_455  S
C147        C148   1.381       .  D
C148        C274   1.614       .  S
H149       C1846   1.065       .  S
H152       C1851   1.066       .  S
C153        C154   1.477       .  S
C153        C159   1.533       .  S
C153        C157   1.478       .  S
C153        C592   1.524       .  S
C154        H161   1.046       .  S
C154        C155   1.301       .  D
C155        C156   1.639       .  S
C155        C265   1.588       .  S
C156        C160   1.669       .  S
C156        C158   1.563       .  S
C156        H162   1.106       .  S
C157        H163   1.084       .  S
C157        C158   1.301       .  D
C158        C604   1.491       .  S
C159        H164   1.063       .  S
C159        C160   1.396       .  D
C160        C261   1.594       .  S
C165       C1018   1.497       .  S
C165       C1023   1.492       .  S
C165       C1021   1.494       .  S
C165        C565   1.519       .  S
C166       C1017   1.489       .  S
C166       H1025   1.059       .  S
C166        C167   1.367       .  D
C167        C168   1.651       .  S
C167        C273   1.614       .  S
C168        C172   1.688       .  S
C168        C170   1.548       .  S
C168        H174   1.105       .  S
C169       C1017   1.494       .  S
C169        H175   1.069       .  S
C169        C170   1.308       .  D
C170        C577   1.474       .  S
C171       C1017   1.503       .  S
C171       H1028   1.068       .  S
C171        C172   1.362       .  D
C172        C269   1.628       .  S
H173       C1018   1.063       .  S
H176       C1023   1.066       .  S
O177        C192   1.240       .  A
O177       Al185   1.835       .  S
C178        O188   1.264       .  A
C178        O179   1.266       .  A
C178        C580   1.493       .  S
O179       Al181   1.936       .  S
O180        C182   1.261       .  A
O180       Al181   1.846       .  S
Al181       O189   1.890       .  S
Al181       O191   1.897       .  S
Al181       O190   1.796       .  S
C182        O195   1.281       .  A
C182        C628   1.500       .  S
O183        C193   1.252       .  A
O183       Al185   1.835       .  S
O184        C197   1.259       .  A
O184       Al194   1.874       .  S
Al185       O198   1.923       .  S
Al185       O195   1.977       .  S
Al185       O190   1.776       .  S
O186        C193   1.262       .  A
O186       Al194   1.948       .  S
O187        C196   1.265       .  A
O187       Al194   1.915       .  S
O188       Al194   1.880       .  S
O189        C196   1.259       .  A
O190       Al194   1.799       .  S
O191        C192   1.253       .  A
C192        C556   1.467       .  S
C193        C601   1.499       .  S
C196        C532   1.486       .  S
C197        O198   1.271       .  A
C197        C541   1.496       .  S
C199        C200   1.494       .  S
C199        C205   1.531       .  S
C199        C203   1.484       .  S
C199        C664   1.527       .  S
C200        H207   1.050       .  S
C200        C201   1.371       .  D
C201        C202   1.643       .  S
C201       C1129   1.597   1_545  S
C202        C206   1.655       .  S
C202        C204   1.557       .  S
C202        H208   1.102       .  S
C203        H209   1.090       .  S
C203        C204   1.319       .  D
C204        C517   1.486       .  S
C205        H210   1.082       .  S
C205        C206   1.358       .  D
C206        C260   1.604       .  S
C211        C212   1.491       .  S
C211        C217   1.503       .  S
C211        C215   1.489       .  S
C211        C652   1.528       .  S
C212        H219   1.069       .  S
C212        C213   1.354       .  D
C213        C214   1.677       .  S
C213        C266   1.631       .  S
C214        C218   1.655       .  S
C214        C216   1.550       .  S
C214        H220   1.103       .  S
C215        H221   1.086       .  S
C215        C216   1.315       .  D
C216        C505   1.483       .  S
C217        H222   1.065       .  S
C217        C218   1.371       .  D
C218       C1980   1.609       .  S
C223        C224   1.545       .  S
C223        C229   1.515       .  S
C223        C227   1.482       .  S
C223        C640   1.509       .  S
C224        H231   1.078       .  S
C224        C225   1.392       .  D
C225        C226   1.660       .  S
C225       C1962   1.596       .  S
C226        C230   1.640       .  S
C226        C228   1.550       .  S
C226        H232   1.099       .  S
C227        H233   1.099       .  S
C227        C228   1.308       .  D
C228        C493   1.478       .  S
C229        H234   1.068       .  S
C229        C230   1.324       .  D
C230       C1120   1.606   1_545  S
O235        C250   1.257       .  A
O235       Al243   1.873       .  S
C236        O246   1.256       .  A
C236        O237   1.274       .  A
C236        C520   1.498       .  S
O237      Al1091   1.949   1_545  S
O238        C240   1.248       .  A
O238      Al1943   1.832       .  S
Al239      O1089   1.943       .  S
Al239      O1942   1.820   1_455  S
Al239      O1099   1.826       .  S
Al239      O1953   1.930   1_455  S
Al239      O2804   1.778   1_455  S
C240        O253   1.267       .  A
C240        C508   1.481       .  S
O241        C251   1.254   1_565  A
O241      Al1095   1.855       .  S
O242        C255   1.257       .  A
O242      Al1956   1.861       .  S
Al243       O253   1.944       .  S
Al243      O1093   1.846       .  S
Al243      O1108   1.922       .  S
Al243      O1100   1.789       .  S
O244        C251   1.267       .  A
O244      Al1956   1.929       .  S
O245        C254   1.265       .  A
O245       Al252   1.928       .  S
O246       Al252   1.871       .  S
O247        C254   1.246       .  A
O247      Al1091   1.847   1_545  S
O248      Al2795   1.782   1_545  S
O248      Al1095   1.791   1_545  S
O248      Al1956   1.784       .  S
O249        C250   1.271       .  A
O249      Al1943   1.929       .  S
C250        C700   1.500       .  S
C251        C496   1.474       .  S
Al252      O1946   1.863   1_455  S
Al252      O1948   1.927   1_455  S
Al252      O1952   1.784   1_455  S
C254        C721   1.484       .  S
C255        O256   1.266       .  A
C255        C676   1.486       .  S
O256      Al1095   1.928   1_545  S
C257        C258   1.501       .  A
C257        C262   1.430       .  A
C258       C1929   1.598   1_455  S
C258        C259   1.428       .  A
C259        C260   1.422       .  A
C259        H264   1.063       .  S
C260        C261   1.509       .  A
C261        C262   1.433       .  A
C262        H263   1.072       .  S
C265        C266   1.533       .  A
C265        C270   1.421       .  A
C266        C267   1.412       .  A
C267        C268   1.423       .  A
C267        H272   1.071       .  S
C268       C1082   1.593       .  S
C268        C269   1.536       .  A
C269        C270   1.418       .  A
C270        H271   1.075       .  S
C273        C274   1.456       .  A
C273        C278   1.487       .  A
C274        C275   1.461       .  A
C275        C276   1.486       .  A
C275        H280   1.080       .  S
C276       C1922   1.604   1_455  S
C276        C277   1.449       .  A
C277       C1053   1.617       .  S
C277        C278   1.464       .  A
C278        H279   1.080       .  S
C281        C282   1.546       .  S
C281        C287   1.528       .  S
C281        C285   1.475       .  S
C281        C748   1.542       .  S
C282        H289   1.077       .  S
C282        C283   1.374       .  D
C283        C284   1.664       .  S
C283        C397   1.618       .  S
C284        C288   1.656       .  S
C284        C286   1.560       .  S
C284        H290   1.106       .  S
C285        H291   1.093       .  S
C285        C286   1.325       .  D
C286        C481   1.484       .  S
C287        H292   1.044       .  S
C287        C288   1.374       .  D
C288       C1266   1.642       .  S
C293        C294   1.519       .  S
C293        C299   1.503       .  S
C293        C297   1.485       .  S
C293        C760   1.534       .  S
C294        H301   1.076       .  S
C294        C295   1.383       .  D
C295        C296   1.660       .  S
C295       C2117   1.629   1_455  S
C296        C300   1.670       .  S
C296        C298   1.560       .  S
C296        H302   1.105       .  S
C297        H303   1.094       .  S
C297        C298   1.315       .  D
C298        C472   1.482       .  S
C299        H304   1.071       .  S
C299        C300   1.346       .  D
C300        C406   1.615       .  S
C305        C306   1.519       .  S
C305        C311   1.547       .  S
C305        C309   1.494       .  S
C305        C772   1.513       .  S
C306        H313   1.078       .  S
C306        C307   1.332       .  D
C307        C308   1.638       .  S
C307       C1260   1.602       .  S
C308        C312   1.654       .  S
C308        C310   1.562       .  S
C308        H314   1.094       .  S
C309        H315   1.098       .  S
C309        C310   1.310       .  D
C310        C457   1.500       .  S
C311        H316   1.079       .  S
C311        C312   1.390       .  D
C312       C2105   1.598   1_455  S
O317        C332   1.240       .  A
O317       Al325   1.817       .  S
C318        O328   1.257       .  A
C318       O2023   1.267       .  A
C318        C469   1.485       .  S
O319       C2022   1.267       .  A
O319       Al321   1.927       .  S
O320       C1174   1.259   1_545  A
O320       Al321   1.856       .  S
Al321       O329   1.861       .  S
Al321       O331   1.925   1_545  S
Al321       O330   1.783       .  S
C322        O335   1.273       .  A
C322       O1172   1.256       .  A
C322        C484   1.495       .  S
O323       C2037   1.242       .  A
O323       Al325   1.837       .  S
O324       C1189   1.258   1_545  A
O324       Al334   1.887       .  S
Al325       O338   1.952       .  S
Al325       O335   1.947       .  S
Al325      O1182   1.786       .  S
O326       C1185   1.268       .  A
O326       Al334   1.941   1_565  S
O327        C336   1.268       .  A
O327       Al334   1.931       .  S
O328       Al334   1.880       .  S
O329       C2040   1.256       .  A
O330      Al1177   1.785   1_545  S
O330      Al2038   1.790       .  S
O331       C1184   1.261       .  A
C332       O1183   1.262       .  A
C332        C808   1.480       .  S
C333       O2027   1.244   1_455  A
C333       O1178   1.265       .  A
C333        C460   1.491       .  S
Al334      O2034   1.789   1_455  S
C336       O2033   1.254   1_455  A
C336        C784   1.478       .  S
C337       O1176   1.260       .  A
C337       O2042   1.276   1_455  A
C337        C832   1.509   1_455  S
O338       C2041   1.277       .  A
C339        C340   1.520       .  S
C339        C345   1.484       .  S
C339        C343   1.484       .  S
C339       C1381   1.535   1_545  S
C340        H347   1.064   1_545  S
C340        C341   1.387       .  D
C341        C342   1.688       .  S
C341        C409   1.645       .  S
C342        C346   1.667       .  S
C342        C344   1.566       .  S
C342        H348   1.106       .  S
C343        H349   1.086       .  S
C343        C344   1.318       .  D
C344        C445   1.484       .  S
C345        H350   1.052       .  S
C345        C346   1.352       .  D
C346        C416   1.639       .  S
C351        C352   1.524       .  S
C351        C357   1.546       .  S
C351        C355   1.512       .  S
C351       C2257   1.530       .  S
C352        H359   1.080       .  S
C352        C353   1.378       .  D
C353        C354   1.656       .  S
C353        C417   1.618       .  S
C354        C358   1.632       .  S
C354        C356   1.565       .  S
C354        H360   1.108       .  S
C355        H361   1.091       .  S
C355        C356   1.332       .  D
C356        C433   1.506       .  S
C357        H362   1.062       .  S
C357        C358   1.363       .  D
C358        C400   1.598       .  S
C363        C364   1.542       .  S
C363        C369   1.513       .  S
C363        C367   1.484       .  S
C363        C544   1.538       .  S
C364        H371   1.072       .  S
C364        C365   1.373       .  D
C365        C366   1.665       .  S
C365        C398   1.603       .  S
C366        C370   1.617       .  S
C366        C368   1.554       .  S
C366        H372   1.097       .  S
C367        H373   1.078       .  S
C367        C368   1.319       .  D
C368        C421   1.474       .  S
C369        H374   1.054       .  S
C369        C370   1.357       .  D
C370        C405   1.615       .  S
O375        C390   1.260       .  A
O375       Al383   1.923       .  S
C376        O386   1.275       .  A
C376        O377   1.245       .  A
C376        C424   1.501       .  S
O377       Al379   1.801       .  S
O378        C380   1.271       .  A
O378       Al379   1.950       .  S
Al379       O387   1.902       .  S
Al379       O389   1.835       .  S
Al379       O388   1.795       .  S
C380        O393   1.273       .  A
C380        C436   1.509       .  S
O381        C391   1.259       .  A
O381       Al383   1.922       .  S
O382        C395   1.268       .  A
O382       Al392   1.925       .  S
Al383       O396   1.936       .  S
Al383       O393   1.927       .  S
Al383       O388   1.783       .  S
O384        C391   1.264       .  A
O384       Al392   1.887       .  S
O385        C394   1.257       .  A
O385       Al392   1.892       .  S
O386       Al392   1.988       .  S
O387        C394   1.260       .  A
O388       Al392   1.780       .  S
O389        C390   1.243       .  A
C390        C616   1.474       .  S
C391        C448   1.493       .  S
C394        C589   1.485       .  S
C395        O396   1.273       .  A
C395        C568   1.503       .  S
C397        C398   1.511       .  A
C397        C402   1.429       .  A
C398        C399   1.434       .  A
C399        C400   1.432       .  A
C399        H404   1.061       .  S
C400        C401   1.499       .  A
C401       C2016   1.602       .  S
C401        C402   1.435       .  A
C402        H403   1.054       .  S
C405        C406   1.519       .  A
C405        C410   1.450       .  A
C406        C407   1.421       .  A
C407        C408   1.436       .  A
C407        H412   1.069       .  S
C408       C1159   1.601   1_545  S
C408        C409   1.528       .  A
C409        C410   1.440       .  A
C410        H411   1.070       .  S
C413       C1999   1.629       .  S
C413        C414   1.472       .  A
C413        C418   1.496       .  A
C414       C1140   1.643       .  S
C414        C415   1.470       .  A
C415        C416   1.497       .  A
C415        H420   1.071       .  S
C416        C417   1.460       .  A
C417        C418   1.471       .  A
C418        H419   1.078       .  S
C421        C422   1.403       .  A
C421        C426   1.429       .  A
C422        C423   1.395       .  A
C422        H427   1.086       .  S
C423        C424   1.420       .  A
C423        C430   1.446       .  S
C424        C425   1.406       .  A
C425        C426   1.417       .  A
C425        H428   1.084       .  S
C426        C429   1.444       .  S
C429        N431   1.157       .  T
C430        N432   1.157       .  T
C433        C434   1.376       .  A
C433        C438   1.438       .  A
C434        C435   1.399       .  A
C434        H439   1.080       .  S
C435        C436   1.404       .  A
C435        C442   1.399       .  S
C436        C437   1.401       .  A
C437        C438   1.420       .  A
C437        H440   1.084       .  S
C438        C441   1.435       .  S
C441        N443   1.156       .  T
C442        N444   1.143       .  T
C445        C446   1.420       .  A
C445        C450   1.418       .  A
C446        C447   1.407       .  A
C446        H451   1.085       .  S
C447        C448   1.411       .  A
C447        C454   1.444       .  S
C448        C449   1.410       .  A
C449        C450   1.408       .  A
C449        H452   1.084       .  S
C450        C453   1.444       .  S
C453        N455   1.157       .  T
C454        N456   1.157       .  T
C457        C458   1.421       .  A
C457        C462   1.425       .  A
C458        C459   1.407       .  A
C458       H1315   1.080       .  S
C459        C460   1.401       .  A
C459       C1318   1.445       .  S
C460        C461   1.405   1_455  A
C461        C462   1.403   1_655  A
C461       H2168   1.085       .  S
C462       C2169   1.444   1_455  S
H463       C1310   1.079       .  S
H464       C2165   1.085       .  S
C465       C2166   1.445       .  S
C465        N467   1.157       .  T
C466       C1311   1.443   1_545  S
C466        N468   1.157       .  T
C469        C470   1.404       .  A
C469        C474   1.402       .  A
C470        C471   1.405       .  A
C470        H475   1.078       .  S
C471        C472   1.415       .  A
C471        C478   1.448       .  S
C472        C473   1.421       .  A
C473        C474   1.393       .  A
C473        H476   1.087   1_455  S
C474        C477   1.444       .  S
C477        N479   1.157   1_455  T
C478        N480   1.157       .  T
C481        C482   1.400       .  A
C481        C486   1.435       .  A
C482        C483   1.401       .  A
C482        H487   1.086       .  S
C483        C484   1.407       .  A
C483        C490   1.446       .  S
C484        C485   1.400       .  A
C485        C486   1.414       .  A
C485        H488   1.084       .  S
C486        C489   1.444       .  S
C489        N491   1.157       .  T
C490       N1344   1.157       .  T
N492       C1342   1.157       .  T
C493        C494   1.404       .  A
C493        C498   1.434       .  A
C494        C495   1.397       .  A
C494        H499   1.081   1_545  S
C495        C496   1.403       .  A
C495       C1354   1.445   1_545  S
C496        C497   1.395       .  A
C497        C498   1.400       .  A
C497        H500   1.084       .  S
C498        C501   1.449       .  S
C501       N2207   1.158       .  T
C502       C1347   1.445       .  S
C502        N504   1.157       .  T
N503       C2205   1.158       .  T
C505        C506   1.418       .  A
C505        C510   1.422       .  A
C506        C507   1.393       .  A
C506        H511   1.087       .  S
C507        C508   1.401       .  A
C507        C514   1.445       .  S
C508        C509   1.399       .  A
C509        C510   1.411       .  A
C509        H512   1.078       .  S
C510        C513   1.448       .  S
C513        N515   1.158       .  T
C514        N516   1.157       .  T
C517        C518   1.413       .  A
C517        C522   1.423       .  A
C518        C519   1.408       .  A
C518        H523   1.085   1_545  S
C519        C520   1.402       .  A
C519        C526   1.442   1_545  S
C520        C521   1.404       .  A
C521        C522   1.408       .  A
C521        H524   1.084       .  S
C522        C525   1.448       .  S
C525        N527   1.157       .  T
C526        N528   1.157       .  T
C529       C1191   1.538       .  S
C529        C530   1.430       .  A
C529        C534   1.394       .  A
C530        C531   1.400       .  A
C530       H1387   1.074       .  S
C531        C532   1.411       .  A
C531        C538   1.445       .  S
C532        C533   1.412       .  A
C533        C534   1.408       .  A
C533        H536   1.065       .  S
C534        C537   1.434       .  S
H535       C1382   1.075       .  S
C537        N539   1.156       .  T
C538        N540   1.157       .  T
C541        C542   1.416       .  A
C541        C546   1.419       .  A
C542        C543   1.402       .  A
C542        H547   1.070       .  S
C543        C544   1.381       .  A
C543        C550   1.433       .  S
C544        C545   1.423       .  A
C545        C546   1.413       .  A
C545        H548   1.079       .  S
C546        C549   1.443       .  S
C549        N551   1.157       .  T
C550        N552   1.155       .  T
C553       C2055   1.529   1_455  S
C553        C554   1.414       .  A
C553        C558   1.434       .  A
C554        C555   1.396       .  A
C554       H2263   1.080       .  S
C555        C556   1.406       .  A
C555        C562   1.443       .  S
C556        C557   1.391       .  A
C557        C558   1.392       .  A
C557        H560   1.086       .  S
C558        C561   1.443       .  S
H559       C2258   1.081       .  S
C561        N563   1.158       .  T
C562        N564   1.157       .  T
C565        C566   1.410       .  A
C565        C570   1.394       .  A
C566        C567   1.405       .  A
C566        H571   1.083       .  S
C567        C568   1.433       .  A
C567        C574   1.444       .  S
C568        C569   1.421       .  A
C569        C570   1.419       .  A
C569        H572   1.080       .  S
C570        C573   1.432       .  S
C573        N575   1.155       .  T
C574        N576   1.157       .  T
C577        C578   1.378       .  A
C577        C582   1.437       .  A
C578        C579   1.387       .  A
C578        H583   1.086       .  S
C579        C580   1.408       .  A
C579        C586   1.394       .  S
C580        C581   1.396       .  A
C581        C582   1.404       .  A
C581        H584   1.084       .  S
C582        C585   1.445       .  S
C585       N1439   1.157       .  T
C586        N588   1.141       .  T
N587       C1437   1.157       .  T
C589        C590   1.392       .  A
C589        C594   1.405       .  A
C590        C591   1.404       .  A
C590        H595   1.085       .  S
C591        C592   1.469       .  A
C591        C598   1.445       .  S
C592        C593   1.395       .  A
C593        C594   1.396       .  A
C593        H596   1.084       .  S
C594        C597   1.389       .  S
C597        N599   1.138       .  T
C598        N600   1.158       .  T
C601        C602   1.404       .  A
C601        C606   1.416       .  A
C602        C603   1.400       .  A
C602        H607   1.086       .  S
C603        C604   1.435       .  A
C603        C610   1.447       .  S
C604        C605   1.422       .  A
C605        C606   1.419       .  A
C605        H608   1.085       .  S
C606        C609   1.441       .  S
C609        N611   1.157       .  T
C610        N612   1.157       .  T
C613        C614   1.421       .  A
C613        C618   1.447       .  A
C614        C615   1.400       .  A
C614        H619   1.078       .  S
C615        C616   1.414       .  A
C615        C622   1.447       .  S
C616        C617   1.397       .  A
C617        C618   1.399       .  A
C617        H620   1.085       .  S
C618        C621   1.444       .  S
C621        N623   1.158       .  T
C622        N624   1.157       .  T
C625        C626   1.411       .  A
C625        C630   1.431       .  A
C626        C627   1.403       .  A
C626        H631   1.085       .  S
C627        C628   1.411       .  A
C627        C634   1.447       .  S
C628        C629   1.405       .  A
C629        C630   1.413       .  A
C629        H632   1.085       .  S
C630        C633   1.438       .  S
C633        N635   1.155       .  T
C634        N636   1.157       .  T
C637        C638   1.386       .  A
C637        C642   1.402       .  A
C638        C639   1.399       .  A
C638        H643   1.086       .  S
C639        C640   1.462       .  A
C639        C646   1.448       .  S
C640        C641   1.395       .  A
C641        C642   1.384       .  A
C641        H644   1.084       .  S
C642        C645   1.413       .  S
C645        N647   1.149       .  T
C646        N648   1.157   1_545  T
C649        C650   1.402       .  A
C649        C654   1.413       .  A
C650        C651   1.401       .  A
C650        H655   1.080       .  S
C651        C652   1.437       .  A
C651        C658   1.442       .  S
C652        C653   1.417       .  A
C653        C654   1.405       .  A
C653        H656   1.081       .  S
C654        C657   1.443       .  S
C657        N659   1.157       .  T
C658        N660   1.158       .  T
C661        C662   1.397       .  A
C661        C666   1.411       .  A
C662        C663   1.397       .  A
C662        H667   1.083       .  S
C663        C664   1.433       .  A
C663        C670   1.439       .  S
C664        C665   1.425       .  A
C665        C666   1.405       .  A
C665        H668   1.076       .  S
C666        C669   1.446       .  S
C669        N671   1.157       .  T
C670        N672   1.157       .  T
C673        C674   1.422       .  A
C673        C678   1.386       .  A
C674        C675   1.408   1_556  A
C674        H679   1.083   1_545  S
C675        C676   1.418       .  A
C675        C682   1.444   1_545  S
C676        C677   1.408       .  A
C677        C678   1.390   1_554  A
C677        H680   1.074       .  S
C678        C681   1.421       .  S
C681        N683   1.150       .  T
C682        N684   1.157       .  T
C685        C686   1.366       .  A
C685        C690   1.440       .  A
C686        C687   1.380       .  A
C686        H691   1.086       .  S
C687        C688   1.403       .  A
C687        C694   1.381       .  S
C688        C689   1.400       .  A
C689        C690   1.416       .  A
C689        H692   1.084       .  S
C690        C693   1.445       .  S
C693        N695   1.158   1_545  T
C694        N696   1.136       .  T
C697        C698   1.437       .  A
C697        C702   1.392       .  A
C698        C699   1.417   1_556  A
C698        H703   1.079       .  S
C699        C700   1.412       .  A
C699        C706   1.446       .  S
C700        C701   1.412       .  A
C701        C702   1.404   1_554  A
C701        H704   1.065       .  S
C702        C705   1.432       .  S
C705        N707   1.155       .  T
C706       N2412   1.157       .  T
N708       C2410   1.157       .  T
C709        C710   1.417       .  A
C709        C714   1.433       .  A
C710        C711   1.420       .  A
C710        H715   1.085       .  S
C711        C712   1.418       .  A
C711        C718   1.441       .  S
C712        C713   1.407       .  A
C713        C714   1.401       .  A
C713        H716   1.086       .  S
C714        C717   1.450       .  S
C717        N719   1.157       .  T
C718        N720   1.157       .  T
C721        C722   1.389       .  A
C721        C726   1.410       .  A
C722        C723   1.400   1_554  A
C722        H727   1.086       .  S
C723        C724   1.451       .  A
C723        C730   1.444       .  S
C724        C725   1.411       .  A
C725        C726   1.405   1_556  A
C725        H728   1.078       .  S
C726        C729   1.442       .  S
C729       N1583   1.157   1_545  T
C730        N732   1.158       .  T
N731       C1581   1.158       .  T
C733        C734   1.417       .  A
C733        C738   1.422       .  A
C734        C735   1.414       .  A
C734        H739   1.084       .  S
C735        C736   1.414       .  A
C735        C742   1.442       .  S
C736        C737   1.412       .  A
C737        C738   1.403       .  A
C737        H740   1.084       .  S
C738        C741   1.448       .  S
C741        N743   1.157   1_554  T
C742        N744   1.157       .  T
C745        C746   1.402       .  A
C745        C750   1.406       .  A
C746        C747   1.393       .  A
C746        H751   1.085       .  S
C747        C748   1.429       .  A
C747        C754   1.438       .  S
C748        C749   1.433       .  A
C749        C750   1.408       .  A
C749        H752   1.081       .  S
C750        C753   1.443       .  S
C753        N755   1.157       .  T
C754        N756   1.156       .  T
C757        C758   1.395       .  A
C757        C762   1.415       .  A
C758        C759   1.398       .  A
C758        H763   1.083       .  S
C759        C760   1.444       .  A
C759        C766   1.441       .  S
C760        C761   1.418       .  A
C761        C762   1.404       .  A
C761        H764   1.082       .  S
C762        C765   1.444       .  S
C765        N767   1.157       .  T
C766        N768   1.158       .  T
C769        C770   1.390       .  A
C769        C774   1.409       .  A
C770        C771   1.405       .  A
C770        H775   1.085       .  S
C771        C772   1.461       .  A
C771        C778   1.446       .  S
C772        C773   1.398       .  A
C773        C774   1.386       .  A
C773        H776   1.083       .  S
C774        C777   1.425       .  S
C777        N779   1.152       .  T
C778        N780   1.157       .  T
C781        C782   1.427       .  A
C781        C786   1.384       .  A
C782        C783   1.404       .  A
C782        H787   1.076       .  S
C783        C784   1.414       .  A
C783        C790   1.444       .  S
C784        C785   1.414       .  A
C785        C786   1.394       .  A
C785       H2492   1.070   1_455  S
C786        C789   1.428   1_455  S
H788       C2489   1.068       .  S
C789       N2495   1.153       .  T
C790        N792   1.157       .  T
N791       C2493   1.154       .  T
C793        C794   1.401       .  A
C793        C798   1.419       .  A
C794        C795   1.399       .  A
C794        H799   1.085       .  S
C795        C796   1.421       .  A
C795        C802   1.444       .  S
C796        C797   1.399       .  A
C797        C798   1.388       .  A
C797        H800   1.085       .  S
C798        C801   1.447       .  S
C801        N803   1.157   1_455  T
C802        N804   1.158       .  T
C805        C806   1.409       .  A
C805        C810   1.434       .  A
C806        C807   1.395       .  A
C806        H811   1.080       .  S
C807        C808   1.414       .  A
C807        C814   1.445       .  S
C808        C809   1.392       .  A
C809        C810   1.400       .  A
C809        H812   1.085       .  S
C810        C813   1.442       .  S
C813        N815   1.157       .  T
C814        N816   1.157       .  T
C817        C818   1.429       .  A
C817        C822   1.374       .  A
C818        C819   1.422       .  A
C818        H823   1.080       .  S
C819        C820   1.411       .  A
C819        C826   1.441       .  S
C820        C821   1.412       .  A
C821        C822   1.409       .  A
C821        H824   1.074       .  S
C822        C825   1.421       .  S
C825        N827   1.155       .  T
C826        N828   1.157       .  T
C829        C830   1.440   1_455  A
C829        C834   1.387       .  A
C830        C831   1.412       .  A
C830        H835   1.079       .  S
C831        C832   1.408       .  A
C831        C838   1.444       .  S
C832        C833   1.418   1_655  A
C833        C834   1.410       .  A
C833       H1688   1.063       .  S
C834        C837   1.432       .  S
H836       C1685   1.062   1_545  S
C837        N839   1.155       .  T
C838       N2544   1.158       .  T
N840       C2542   1.158       .  T
C841        C842   1.403       .  A
C841        C846   1.426       .  A
C842        C843   1.402       .  A
C842        H847   1.084       .  S
C843        C844   1.421       .  A
C843        C850   1.445       .  S
C844        C845   1.395       .  A
C845        C846   1.392       .  A
C845        H848   1.086       .  S
C846        C849   1.445       .  S
C849        N851   1.157       .  T
C850        N852   1.157   1_455  T
C853        C854   1.548       .  S
C853        C859   1.497       .  S
C853        C857   1.489       .  S
C853       C1681   1.544       .  S
C854        H861   1.065       .  S
C854        C855   1.389       .  D
C855        C856   1.658       .  S
C855        C912   1.606       .  S
C856        C860   1.639       .  S
C856        C858   1.553       .  S
C856        H862   1.095       .  S
C857        H863   1.081       .  S
C857        C858   1.306       .  D
C858       C1696   1.475       .  S
C859        H864   1.052       .  S
C859        C860   1.327       .  D
C860        C978   1.622       .  S
C865        C866   1.508       .  S
C865        C871   1.546       .  S
C865        C869   1.502       .  S
C865       C1657   1.530       .  S
C866        H873   1.076       .  S
C866        C867   1.374       .  D
C867        C868   1.687       .  S
C867        C986   1.626       .  S
C868        C872   1.628       .  S
C868        C870   1.567       .  S
C868        H874   1.106       .  S
C869        H875   1.092       .  S
C869        C870   1.325       .  D
C870       C1669   1.508       .  S
C871        H876   1.072       .  S
C871        C872   1.363       .  D
C872        C914   1.623       .  S
C877        C878   1.541       .  S
C877        C883   1.512       .  S
C877        C881   1.477       .  S
C877       C1633   1.527       .  S
C878        H885   1.076   1_455  S
C878        C879   1.387       .  D
C879        C880   1.683       .  S
C879        C980   1.637       .  S
C880        C884   1.631       .  S
C880        C882   1.568       .  S
C880        H886   1.102       .  S
C881        H887   1.091       .  S
C881        C882   1.314       .  D
C882       C1645   1.461       .  S
C883        H888   1.054       .  S
C883        C884   1.369       .  D
C884        C985   1.631       .  S
O889        C904   1.270       .  A
O889       Al897   1.919       .  S
C890        O900   1.258       .  A
C890        O891   1.259       .  A
C890       C1648   1.467       .  S
O891       Al893   1.877       .  S
O892        C894   1.268       .  A
O892       Al893   1.941       .  S
Al893       O901   1.927       .  S
Al893       O903   1.879       .  S
Al893       O902   1.783       .  S
C894        O907   1.242       .  A
C894       C1693   1.482       .  S
O895        C905   1.273       .  A
O895       Al897   1.945       .  S
O896        C909   1.263       .  A
O896       Al906   1.925       .  S
Al897       O910   1.830       .  S
Al897       O907   1.812       .  S
Al897       O902   1.789       .  S
O898        C905   1.268       .  A
O898       Al906   1.917       .  S
O899        C908   1.265       .  A
O899       Al906   1.879       .  S
O900       Al906   1.905       .  S
O901        C908   1.267       .  A
O902       Al906   1.774       .  S
O903        C904   1.255       .  A
C904       C1621   1.486       .  S
C905       C1672   1.511       .  S
C908       C1609   1.485       .  S
C909        O910   1.244       .  A
C909       C1597   1.489       .  S
C911        C921   1.632       .  S
C911        C916   1.436       .  A
C912        C913   1.448       .  A
C913        C914   1.431       .  A
C913        H918   1.067       .  S
C915        C950   1.600       .  S
C915        C916   1.446       .  A
C916        H917   1.066       .  S
C919        C920   1.551       .  S
C919        C925   1.498       .  S
C919        C923   1.479       .  S
C919       C1576   1.547       .  S
C920        H927   1.073       .  S
C920        C921   1.369       .  D
C921        C922   1.667       .  S
C922        C926   1.651       .  S
C922        C924   1.561       .  S
C922        H928   1.103       .  S
C923        H929   1.089   1_556  S
C923        C924   1.321       .  D
C924       C1585   1.485   1_556  S
C925        H930   1.044       .  S
C925        C926   1.364       .  D
C926        C989   1.613       .  S
C931        C932   1.525       .  S
C931        C937   1.490       .  S
C931        C935   1.478       .  S
C931       C1549   1.555       .  S
C932        H939   1.070       .  S
C932        C933   1.391       .  D
C933        C934   1.682       .  S
C933        C988   1.630       .  S
C934        C938   1.672       .  S
C934        C936   1.560       .  S
C934        H940   1.104       .  S
C935        H941   1.072   1_556  S
C935        C936   1.312       .  D
C936       C1561   1.493   1_556  S
C937        H942   1.056       .  S
C937        C938   1.327       .  D
C938        C977   1.637       .  S
C943        C944   1.533       .  S
C943        C949   1.545       .  S
C943        C947   1.494       .  S
C943       C1525   1.525       .  S
C944        H951   1.075       .  S
C944        C945   1.374       .  D
C945        C946   1.663       .  S
C945        C981   1.596       .  S
C946        C950   1.596       .  S
C946        C948   1.550       .  S
C946        H952   1.094       .  S
C947        H953   1.089   1_556  S
C947        C948   1.314       .  D
C948       C1537   1.470   1_556  S
C949        H954   1.060       .  S
C949        C950   1.357       .  D
O955        C970   1.270       .  A
O955       Al963   1.942       .  S
C956        O966   1.278       .  A
C956        O957   1.256       .  A
C956       C1588   1.507       .  S
O957       Al959   1.844       .  S
O958        C960   1.263       .  A
O958       Al959   1.938       .  S
Al959       O967   1.906       .  S
Al959       O969   1.856       .  S
Al959       O968   1.810       .  S
C960        O973   1.262       .  A
C960       C1540   1.502       .  S
O961        C971   1.267       .  A
O961       Al963   1.957       .  S
O962        C975   1.263       .  A
O962       Al972   1.902       .  S
Al963       O976   1.862       .  S
Al963       O973   1.890       .  S
Al963       O968   1.794       .  S
O964        C971   1.259       .  A
O964       Al972   1.846       .  S
O965        C974   1.248       .  A
O965       Al972   1.865       .  S
O966       Al972   1.977       .  S
O967        C974   1.257       .  A
O968       Al972   1.786       .  S
O969        C970   1.250       .  A
C970       C1489   1.480       .  S
C971       C1564   1.505       .  S
C974       C1513   1.482       .  S
C975        O976   1.252       .  A
C975       C1501   1.473       .  S
C977       C2682   1.535       .  A
C977        C982   1.420       .  A
C978       C2681   1.535   1_455  A
C978        C979   1.445       .  A
C979        C980   1.442       .  A
C979        H984   1.072       .  S
C980       C2685   1.520   1_455  A
C981       C2684   1.519       .  A
C981        C982   1.441       .  A
C982        H983   1.068       .  S
C985        C986   1.462       .  A
C985        C990   1.481       .  A
C986        C987   1.486       .  A
C987        C988   1.495       .  A
C987        H992   1.080       .  S
C988        C989   1.454       .  A
C989        C990   1.474       .  A
C990        H991   1.076       .  S
C993       C2698   1.507       .  S
C993       C2703   1.505       .  S
C993       C2701   1.494       .  S
C993       C1465   1.528       .  S
C994       C2697   1.506   1_455  S
C994       H2705   1.083   1_455  S
C994        C995   1.351       .  D
C995        C996   1.681       .  S
C995       C1109   1.605       .  S
C996       C1000   1.667       .  S
C996        C998   1.528       .  S
C996       H1002   1.105       .  S
C997       C2697   1.494   1_455  S
C997       H1003   1.092       .  S
C997        C998   1.316       .  D
C998       C1477   1.471       .  S
C999       C2697   1.503   1_455  S
C999       H2708   1.078   1_455  S
C999       C1000   1.373       .  D
C1000      C1126   1.634       .  S
H1001      C2698   1.083       .  S
H1004      C2703   1.079       .  S
C1005      C1006   1.481       .  S
C1005      C1011   1.530       .  S
C1005      C1009   1.484       .  S
C1005      C1444   1.521       .  S
C1006      H1013   1.047       .  S
C1006      C1007   1.301       .  D
C1007      C1008   1.641       .  S
C1007      C1117   1.593       .  S
C1008      C1012   1.676       .  S
C1008      C1010   1.565       .  S
C1008      H1014   1.106       .  S
C1009      H1015   1.082       .  S
C1009      C1010   1.300       .  D
C1010      C1456   1.492       .  S
C1011      H1016   1.055       .  S
C1011      C1012   1.397       .  D
C1012      C1113   1.594       .  S
C1017      C1417   1.515       .  S
C1018      C1019   1.374   1_545  D
C1019      C1020   1.641       .  S
C1019      C1125   1.620       .  S
C1020      C1024   1.680       .  S
C1020      C1022   1.539       .  S
C1020      H1026   1.103       .  S
C1021      H1027   1.077       .  S
C1021      C1022   1.314   1_545  D
C1022      C1429   1.461       .  S
C1023      C1024   1.359   1_545  D
C1024      C1121   1.610       .  S
O1029      C1044   1.238       .  A
O1029     Al1037   1.820       .  S
C1030      O1040   1.265       .  A
C1030      O1031   1.265       .  A
C1030      C1432   1.492       .  S
O1031     Al1033   1.930       .  S
O1032      C1034   1.261       .  A
O1032     Al1033   1.858       .  S
Al1033     O1041   1.895       .  S
Al1033     O1043   1.896       .  S
Al1033     O1042   1.800       .  S
C1034      O1047   1.278       .  A
C1034      C1480   1.493       .  S
O1035      C1045   1.251       .  A
O1035     Al1037   1.835       .  S
O1036      C1049   1.261       .  A
O1036     Al1046   1.870       .  S
Al1037     O1050   1.921       .  S
Al1037     O1047   1.959       .  S
Al1037     O1042   1.776       .  S
O1038      C1045   1.259       .  A
O1038     Al1046   1.939       .  S
O1039      C1048   1.265       .  A
O1039     Al1046   1.918       .  S
O1040     Al1046   1.886       .  S
O1041      C1048   1.259       .  A
O1042     Al1046   1.798       .  S
O1043      C1044   1.253       .  A
C1044      C1408   1.466       .  S
C1045      C1453   1.494       .  S
C1048      C1384   1.490       .  S
C1049      O1050   1.270       .  A
C1049      C1393   1.491       .  S
C1051      C1052   1.520       .  S
C1051      C1057   1.540       .  S
C1051      C1055   1.486       .  S
C1051      C1516   1.539       .  S
C1052      H1059   1.058       .  S
C1052      C1053   1.375       .  D
C1053      C1054   1.658       .  S
C1054      C1058   1.660       .  S
C1054      C1056   1.560       .  S
C1054      H1060   1.103       .  S
C1055      H1061   1.092       .  S
C1055      C1056   1.320       .  D
C1056      C1369   1.488       .  S
C1057      H1062   1.082       .  S
C1057      C1058   1.357       .  D
C1058      C1112   1.623       .  S
C1063      C1064   1.505       .  S
C1063      C1069   1.507       .  S
C1063      C1067   1.474       .  S
C1063      C1504   1.533       .  S
C1064      H1071   1.069       .  S
C1064      C1065   1.364       .  D
C1065      C1066   1.655       .  S
C1065      C1118   1.629       .  S
C1066      C1070   1.649       .  S
C1066      C1068   1.574       .  S
C1066      H1072   1.100       .  S
C1067      H1073   1.084       .  S
C1067      C1068   1.320       .  D
C1068      C1357   1.494       .  S
C1069      H1074   1.071       .  S
C1069      C1070   1.376       .  D
C1070      C2832   1.607       .  S
C1075      C1076   1.540       .  S
C1075      C1081   1.499       .  S
C1075      C1079   1.489       .  S
C1075      C1492   1.518       .  S
C1076      H1083   1.060       .  S
C1076      C1077   1.388       .  D
C1077      C1078   1.646       .  S
C1077      C2814   1.608       .  S
C1078      C1082   1.656       .  S
C1078      C1080   1.538       .  S
C1078      H1084   1.100       .  S
C1079      H1085   1.097       .  S
C1079      C1080   1.306       .  D
C1080      C1345   1.473       .  S
C1081      H1086   1.074       .  S
C1081      C1082   1.320       .  D
O1087      C1102   1.256       .  A
O1087     Al1095   1.873       .  S
C1088      O1098   1.257       .  A
C1088      O1089   1.273       .  A
C1088      C1372   1.499       .  S
O1090      C1092   1.249       .  A
O1090     Al2795   1.840       .  S
Al1091     O2794   1.835   1_455  S
Al1091     O2805   1.930   1_455  S
Al1091     O1952   1.780   1_465  S
C1092      O1105   1.267       .  A
C1092      C1360   1.487       .  S
O1093      C1103   1.254       .  A
O1094      C1107   1.258       .  A
O1094     Al2808   1.875       .  S
Al1095     O1105   1.940       .  S
O1096      C1103   1.268       .  A
O1096     Al2808   1.930       .  S
O1097      C1106   1.268       .  A
O1097     Al1104   1.935       .  S
O1098     Al1104   1.879       .  S
O1099      C1106   1.243       .  A
O1100     Al1943   1.778       .  S
O1100     Al2808   1.785       .  S
O1101      C1102   1.270       .  A
O1101     Al2795   1.929       .  S
C1102      C1552   1.503       .  S
C1103      C1348   1.473       .  S
Al1104     O2798   1.870   1_455  S
Al1104     O2800   1.930   1_455  S
Al1104     O2804   1.784   1_455  S
C1106      C1573   1.479       .  S
C1107      O1108   1.265       .  A
C1107      C1528   1.488       .  S
C1109      C1110   1.514       .  A
C1109      C1114   1.425       .  A
C1110      C2781   1.607   1_455  S
C1110      C1111   1.435       .  A
C1111      C1112   1.425       .  A
C1111      H1116   1.068       .  S
C1112      C1113   1.519       .  A
C1113      C1114   1.437       .  A
C1114      H1115   1.077       .  S
C1117      C1118   1.530       .  A
C1117      C1122   1.423       .  A
C1118      C1119   1.420       .  A
C1119      C1120   1.421       .  A
C1119      H1124   1.067       .  S
C1120      C1121   1.528       .  A
C1121      C1122   1.426       .  A
C1122      H1123   1.077       .  S
C1125      C1126   1.477       .  A
C1125      C1130   1.485       .  A
C1126      C1127   1.482       .  A
C1127      C1128   1.464       .  A
C1127      H1132   1.074   1_455  S
C1128      C2774   1.609   1_455  S
C1128      C1129   1.451       .  A
C1129      C1130   1.465       .  A
C1130      H1131   1.078   1_565  S
C1133      C1134   1.538       .  S
C1133      C1139   1.531       .  S
C1133      C1137   1.474       .  S
C1133      C1600   1.542       .  S
C1134      H1141   1.075       .  S
C1134      C1135   1.373       .  D
C1135      C1136   1.666       .  S
C1135      C1249   1.613       .  S
C1136      C1140   1.650   1_565  S
C1136      C1138   1.556       .  S
C1136      H1142   1.105       .  S
C1137      H1143   1.094       .  S
C1137      C1138   1.325       .  D
C1138      C1333   1.479       .  S
C1139      H1144   1.041       .  S
C1139      C1140   1.377   1_565  D
C1145      C1146   1.520       .  S
C1145      C1151   1.507       .  S
C1145      C1149   1.486       .  S
C1145      C1612   1.535       .  S
C1146      H1153   1.076       .  S
C1146      C1147   1.381       .  D
C1147      C1148   1.662       .  S
C1147      C2969   1.631   1_455  S
C1148      C1152   1.675       .  S
C1148      C1150   1.563       .  S
C1148      H1154   1.106       .  S
C1149      H1155   1.093       .  S
C1149      C1150   1.312       .  D
C1150      C1324   1.487       .  S
C1151      H1156   1.071       .  S
C1151      C1152   1.351       .  D
C1152      C1258   1.623       .  S
C1157      C1158   1.521       .  S
C1157      C1163   1.548       .  S
C1157      C1161   1.494       .  S
C1157      C1624   1.510       .  S
C1158      H1165   1.077       .  S
C1158      C1159   1.334       .  D
C1159      C1160   1.636       .  S
C1160      C1164   1.656       .  S
C1160      C1162   1.561       .  S
C1160      H1166   1.094       .  S
C1161      H1167   1.097       .  S
C1161      C1162   1.311       .  D
C1162      C1309   1.497       .  S
C1163      H1168   1.078       .  S
C1163      C1164   1.385       .  D
C1164      C2957   1.599   1_455  S
O1169      C1184   1.240       .  A
O1169     Al1177   1.817       .  S
C1170      O1180   1.258       .  A
C1170      O2875   1.271       .  A
C1170      C1321   1.490       .  S
O1171      C2874   1.270       .  A
O1171     Al1173   1.936       .  S
O1172     Al1173   1.844       .  S
Al1173     O1181   1.858       .  S
Al1173     O1183   1.925       .  S
Al1173     O1182   1.783       .  S
C1174      O1187   1.273       .  A
C1174      C1336   1.490       .  S
O1175      C2889   1.243       .  A
O1175     Al1177   1.828       .  S
O1176     Al1186   1.882       .  S
Al1177     O1190   1.933       .  S
Al1177     O1187   1.948       .  S
O1178     Al1186   1.929       .  S
O1179      C1188   1.266       .  A
O1179     Al1186   1.930       .  S
O1180     Al1186   1.887       .  S
O1181      C2892   1.254       .  A
O1182     Al2890   1.786       .  S
C1184      C1660   1.478       .  S
C1185      O2879   1.243   1_455  A
C1185      C1312   1.491       .  S
Al1186     O2886   1.786   1_455  S
C1188      O2885   1.255   1_455  A
C1188      C1636   1.485       .  S
C1189      O2894   1.273   1_455  A
C1189      C1684   1.507       .  S
O1190      C2893   1.272       .  A
C1191      C1192   1.521       .  S
C1191      C1197   1.489       .  S
C1191      C1195   1.486       .  S
C1192      H1199   1.065       .  S
C1192      C1193   1.388       .  D
C1193      C1194   1.691       .  S
C1193      C1261   1.648       .  S
C1194      C1198   1.670       .  S
C1194      C1196   1.573       .  S
C1194      H1200   1.106       .  S
C1195      H1201   1.083       .  S
C1195      C1196   1.315       .  D
C1196      C1297   1.494       .  S
C1197      H1202   1.055       .  S
C1197      C1198   1.352       .  D
C1198      C1268   1.644       .  S
C1203      C1204   1.523       .  S
C1203      C1209   1.543       .  S
C1203      C1207   1.507       .  S
C1203      C3109   1.529       .  S
C1204      H1211   1.078       .  S
C1204      C1205   1.378       .  D
C1205      C1206   1.659       .  S
C1205      C1269   1.622       .  S
C1206      C1210   1.645       .  S
C1206      C1208   1.567       .  S
C1206      H1212   1.108       .  S
C1207      H1213   1.091       .  S
C1207      C1208   1.329       .  D
C1208      C1285   1.504       .  S
C1209      H1214   1.062       .  S
C1209      C1210   1.362       .  D
C1210      C1252   1.605       .  S
C1215      C1216   1.539       .  S
C1215      C1221   1.514       .  S
C1215      C1219   1.486       .  S
C1215      C1396   1.532       .  S
C1216      H1223   1.073       .  S
C1216      C1217   1.374       .  D
C1217      C1218   1.663       .  S
C1217      C1250   1.600       .  S
C1218      C1222   1.619       .  S
C1218      C1220   1.553       .  S
C1218      H1224   1.097       .  S
C1219      H1225   1.082       .  S
C1219      C1220   1.321       .  D
C1220      C1273   1.471       .  S
C1221      H1226   1.054       .  S
C1221      C1222   1.352       .  D
C1222      C1257   1.615       .  S
O1227      C1242   1.264       .  A
O1227     Al1235   1.941       .  S
C1228      O1238   1.275       .  A
C1228      O1229   1.244       .  A
C1228      C1276   1.499       .  S
O1229     Al1231   1.808       .  S
O1230      C1232   1.272       .  A
O1230     Al1231   1.947       .  S
Al1231     O1239   1.897       .  S
Al1231     O1241   1.854       .  S
Al1231     O1240   1.798       .  S
C1232      O1245   1.274       .  A
C1232      C1288   1.520       .  S
O1233      C1243   1.258       .  A
O1233     Al1235   1.924       .  S
O1234      C1247   1.269       .  A
O1234     Al1244   1.926       .  S
Al1235     O1248   1.928       .  S
Al1235     O1245   1.940       .  S
Al1235     O1240   1.782       .  S
O1236      C1243   1.263       .  A
O1236     Al1244   1.891       .  S
O1237      C1246   1.256       .  A
O1237     Al1244   1.889       .  S
O1238     Al1244   1.981       .  S
O1239      C1246   1.258       .  A
O1240     Al1244   1.778       .  S
O1241      C1242   1.246       .  A
C1242      C1468   1.491       .  S
C1243      C1300   1.495       .  S
C1246      C1441   1.483       .  S
C1247      O1248   1.273       .  A
C1247      C1420   1.502       .  S
C1249      C1250   1.509       .  A
C1249      C1254   1.426       .  A
C1250      C1251   1.431       .  A
C1251      C1252   1.427       .  A
C1251      H1256   1.058       .  S
C1252      C1253   1.506       .  A
C1253      C2868   1.601       .  S
C1253      C1254   1.433       .  A
C1254      H1255   1.054       .  S
C1257      C1258   1.522       .  A
C1257      C1262   1.452       .  A
C1258      C1259   1.423       .  A
C1259      C1260   1.438       .  A
C1259      H1264   1.069       .  S
C1260      C1261   1.529       .  A
C1261      C1262   1.441       .  A
C1262      H1263   1.070       .  S
C1265      C2851   1.631       .  S
C1265      C1266   1.469       .  A
C1265      C1270   1.495       .  A
C1266      C1267   1.473       .  A
C1267      C1268   1.499       .  A
C1267      H1272   1.071       .  S
C1268      C1269   1.465       .  A
C1269      C1270   1.475       .  A
C1270      H1271   1.078       .  S
C1273      C1274   1.402       .  A
C1273      C1278   1.424       .  A
C1274      C1275   1.397       .  A
C1274      H1279   1.086       .  S
C1275      C1276   1.424       .  A
C1275      C1282   1.447       .  S
C1276      C1277   1.404       .  A
C1277      C1278   1.412       .  A
C1277      H1280   1.084       .  S
C1278      C1281   1.444       .  S
C1281      N1283   1.157       .  T
C1282      N1284   1.157       .  T
C1285      C1286   1.378       .  A
C1285      C1290   1.437       .  A
C1286      C1287   1.401       .  A
C1286      H1291   1.078       .  S
C1287      C1288   1.407       .  A
C1287      C1294   1.401       .  S
C1288      C1289   1.406       .  A
C1289      C1290   1.424       .  A
C1289      H1292   1.083       .  S
C1290      C1293   1.437       .  S
C1293      N1295   1.157       .  T
C1294      N1296   1.145       .  T
C1297      C1298   1.423       .  A
C1297      C1302   1.419       .  A
C1298      C1299   1.410       .  A
C1298      H1303   1.085       .  S
C1299      C1300   1.412       .  A
C1299      C1306   1.444       .  S
C1300      C1301   1.409       .  A
C1301      C1302   1.408       .  A
C1301      H1304   1.084       .  S
C1302      C1305   1.443       .  S
C1305      N1307   1.157       .  T
C1306      N1308   1.157       .  T
C1309      C1310   1.419   1_565  A
C1309      C1314   1.424       .  A
C1310      C1311   1.408   1_545  A
C1311      C1312   1.400       .  A
C1312      C1313   1.406       .  A
C1313      C1314   1.403       .  A
C1313      H3020   1.085   1_455  S
C1314      C3021   1.445   1_455  S
H1316      C3017   1.085       .  S
C1317      C3018   1.445       .  S
C1317      N1319   1.157       .  T
C1318      N1320   1.157       .  T
C1321      C1322   1.407       .  A
C1321      C1326   1.399       .  A
C1322      C1323   1.408       .  A
C1322      H1327   1.076       .  S
C1323      C1324   1.409       .  A
C1323      C1330   1.445       .  S
C1324      C1325   1.426       .  A
C1325      C1326   1.395       .  A
C1325      H1328   1.087       .  S
C1326      C1329   1.445       .  S
C1329      N1331   1.157       .  T
C1330      N1332   1.157       .  T
C1333      C1334   1.399   1_565  A
C1333      C1338   1.435       .  A
C1334      C1335   1.399       .  A
C1334      H1339   1.087       .  S
C1335      C1336   1.401   1_545  A
C1335      C1342   1.445       .  S
C1336      C1337   1.400       .  A
C1337      C1338   1.414       .  A
C1337      H1340   1.084       .  S
C1338      C1341   1.447       .  S
C1341      N1343   1.157       .  T
C1345      C1346   1.400       .  A
C1345      C1350   1.433       .  A
C1346      C1347   1.394       .  A
C1346      H1351   1.079       .  S
C1347      C1348   1.404       .  A
C1348      C1349   1.396       .  A
C1349      C1350   1.400       .  A
C1349      H1352   1.084       .  S
C1350      C1353   1.449       .  S
C1353      N3059   1.158       .  T
C1354      N1356   1.157       .  T
N1355      C3057   1.158       .  T
C1357      C1358   1.417       .  A
C1357      C1362   1.431       .  A
C1358      C1359   1.397       .  A
C1358      H1363   1.086       .  S
C1359      C1360   1.401       .  A
C1359      C1366   1.444       .  S
C1360      C1361   1.399       .  A
C1361      C1362   1.413       .  A
C1361      H1364   1.081       .  S
C1362      C1365   1.449       .  S
C1365      N1367   1.158       .  T
C1366      N1368   1.157       .  T
C1369      C1370   1.414       .  A
C1369      C1374   1.421       .  A
C1370      C1371   1.408       .  A
C1370      H1375   1.085       .  S
C1371      C1372   1.403       .  A
C1371      C1378   1.442       .  S
C1372      C1373   1.404       .  A
C1373      C1374   1.409       .  A
C1373      H1376   1.084       .  S
C1374      C1377   1.445       .  S
C1377      N1379   1.156       .  T
C1378      N1380   1.157       .  T
C1381      C1382   1.429       .  A
C1381      C1386   1.390       .  A
C1382      C1383   1.401       .  A
C1383      C1384   1.413       .  A
C1383      C1390   1.446       .  S
C1384      C1385   1.412       .  A
C1385      C1386   1.407       .  A
C1385      H1388   1.066       .  S
C1386      C1389   1.434       .  S
C1389      N1391   1.156       .  T
C1390      N1392   1.158       .  T
C1393      C1394   1.414       .  A
C1393      C1398   1.418       .  A
C1394      C1395   1.399       .  A
C1394      H1399   1.069       .  S
C1395      C1396   1.383       .  A
C1395      C1402   1.433       .  S
C1396      C1397   1.422       .  A
C1397      C1398   1.410       .  A
C1397      H1400   1.079       .  S
C1398      C1401   1.443       .  S
C1401      N1403   1.157       .  T
C1402      N1404   1.155       .  T
C1405      C2907   1.529   1_455  S
C1405      C1406   1.417       .  A
C1405      C1410   1.435       .  A
C1406      C1407   1.398       .  A
C1406      H3115   1.081       .  S
C1407      C1408   1.408       .  A
C1407      C1414   1.445       .  S
C1408      C1409   1.390       .  A
C1409      C1410   1.391       .  A
C1409      H1412   1.086       .  S
C1410      C1413   1.443       .  S
H1411      C3110   1.080       .  S
C1413      N1415   1.158       .  T
C1414      N1416   1.157       .  T
C1417      C1418   1.412       .  A
C1417      C1422   1.386       .  A
C1418      C1419   1.406       .  A
C1418      H1423   1.083       .  S
C1419      C1420   1.434       .  A
C1419      C1426   1.445       .  S
C1420      C1421   1.428       .  A
C1421      C1422   1.418       .  A
C1421      H1424   1.080       .  S
C1422      C1425   1.430       .  S
C1425      N1427   1.155       .  T
C1426      N1428   1.158       .  T
C1429      C1430   1.377       .  A
C1429      C1434   1.430       .  A
C1430      C1431   1.385       .  A
C1430      H1435   1.086       .  S
C1431      C1432   1.408       .  A
C1431      C1438   1.396       .  S
C1432      C1433   1.399       .  A
C1433      C1434   1.404       .  A
C1433      H1436   1.084       .  S
C1434      C1437   1.446       .  S
C1438      N1440   1.142       .  T
C1441      C1442   1.388       .  A
C1441      C1446   1.405       .  A
C1442      C1443   1.402       .  A
C1442      H1447   1.086       .  S
C1443      C1444   1.468       .  A
C1443      C1450   1.443       .  S
C1444      C1445   1.393       .  A
C1445      C1446   1.396       .  A
C1445      H1448   1.084       .  S
C1446      C1449   1.378       .  S
C1449      N1451   1.135       .  T
C1450      N1452   1.157       .  T
C1453      C1454   1.402       .  A
C1453      C1458   1.413       .  A
C1454      C1455   1.399       .  A
C1454      H1459   1.086       .  S
C1455      C1456   1.435       .  A
C1455      C1462   1.446       .  S
C1456      C1457   1.421       .  A
C1457      C1458   1.416       .  A
C1457      H1460   1.085       .  S
C1458      C1461   1.441       .  S
C1461      N1463   1.157       .  T
C1462      N1464   1.158       .  T
C1465      C1466   1.414       .  A
C1465      C1470   1.438       .  A
C1466      C1467   1.401       .  A
C1466      H1471   1.082       .  S
C1467      C1468   1.422       .  A
C1467      C1474   1.445       .  S
C1468      C1469   1.410       .  A
C1469      C1470   1.414       .  A
C1469      H1472   1.084       .  S
C1470      C1473   1.443       .  S
C1473      N1475   1.157       .  T
C1474      N1476   1.157       .  T
C1477      C1478   1.407       .  A
C1477      C1482   1.427       .  A
C1478      C1479   1.401       .  A
C1478      H1483   1.086       .  S
C1479      C1480   1.411       .  A
C1479      C1486   1.445       .  S
C1480      C1481   1.404       .  A
C1481      C1482   1.407       .  A
C1481      H1484   1.085       .  S
C1482      C1485   1.440       .  S
C1485      N1487   1.155       .  T
C1486      N1488   1.157       .  T
C1489      C1490   1.391       .  A
C1489      C1494   1.403       .  A
C1490      C1491   1.403       .  A
C1490      H1495   1.086       .  S
C1491      C1492   1.461       .  A
C1491      C1498   1.446       .  S
C1492      C1493   1.398       .  A
C1493      C1494   1.393       .  A
C1493      H1496   1.084       .  S
C1494      C1497   1.410       .  S
C1497      N1499   1.147       .  T
C1498      N1500   1.157       .  T
C1501      C1502   1.404       .  A
C1501      C1506   1.416       .  A
C1502      C1503   1.401       .  A
C1502      H1507   1.081       .  S
C1503      C1504   1.433       .  A
C1503      C1510   1.441       .  S
C1504      C1505   1.411       .  A
C1505      C1506   1.402       .  A
C1505      H1508   1.082       .  S
C1506      C1509   1.445       .  S
C1509      N1511   1.157       .  T
C1510      N1512   1.158       .  T
C1513      C1514   1.403       .  A
C1513      C1518   1.410       .  A
C1514      C1515   1.404       .  A
C1514      H1519   1.084       .  S
C1515      C1516   1.427       .  A
C1515      C1522   1.436       .  S
C1516      C1517   1.429       .  A
C1517      C1518   1.407       .  A
C1517      H1520   1.075       .  S
C1518      C1521   1.446       .  S
C1521      N1523   1.157       .  T
C1522      N1524   1.156       .  T
C1525      C1526   1.421       .  A
C1525      C1530   1.388       .  A
C1526      C1527   1.408   1_556  A
C1526      H1531   1.083       .  S
C1527      C1528   1.418       .  A
C1527      C1534   1.444       .  S
C1528      C1529   1.408       .  A
C1529      C1530   1.394   1_554  A
C1529      H1532   1.072       .  S
C1530      C1533   1.425       .  S
C1533      N1535   1.152       .  T
C1534      N1536   1.157       .  T
C1537      C1538   1.368       .  A
C1537      C1542   1.436       .  A
C1538      C1539   1.382       .  A
C1538      H1543   1.084       .  S
C1539      C1540   1.402       .  A
C1539      C1546   1.382       .  S
C1540      C1541   1.400       .  A
C1541      C1542   1.415       .  A
C1541      H1544   1.083       .  S
C1542      C1545   1.442       .  S
C1545      N1547   1.157       .  T
C1546      N1548   1.136       .  T
C1549      C1550   1.438       .  A
C1549      C1554   1.395       .  A
C1550      C1551   1.417   1_556  A
C1550      H1555   1.075       .  S
C1551      C1552   1.412       .  A
C1551      C1558   1.445       .  S
C1552      C1553   1.413       .  A
C1553      C1554   1.406   1_554  A
C1553      H1556   1.066       .  S
C1554      C1557   1.432       .  S
C1557      N1559   1.155       .  T
C1558      N3264   1.157       .  T
N1560      C3262   1.157       .  T
C1561      C1562   1.418       .  A
C1561      C1566   1.434       .  A
C1562      C1563   1.418       .  A
C1562      H1567   1.085       .  S
C1563      C1564   1.419       .  A
C1563      C1570   1.442       .  S
C1564      C1565   1.409       .  A
C1565      C1566   1.403       .  A
C1565      H1568   1.085       .  S
C1566      C1569   1.450       .  S
C1569      N1571   1.157       .  T
C1570      N1572   1.157       .  T
C1573      C1574   1.386       .  A
C1573      C1578   1.412       .  A
C1574      C1575   1.397   1_554  A
C1574      H1579   1.086       .  S
C1575      C1576   1.449       .  A
C1575      C1582   1.443       .  S
C1576      C1577   1.416       .  A
C1577      C1578   1.407   1_556  A
C1577      H1580   1.080       .  S
C1578      C1581   1.445       .  S
C1582      N1584   1.158       .  T
C1585      C1586   1.420       .  A
C1585      C1590   1.422       .  A
C1586      C1587   1.417       .  A
C1586      H1591   1.082       .  S
C1587      C1588   1.414       .  A
C1587      C1594   1.444       .  S
C1588      C1589   1.412       .  A
C1589      C1590   1.403       .  A
C1589      H1592   1.085       .  S
C1590      C1593   1.446       .  S
C1593      N1595   1.157   1_554  T
C1594      N1596   1.158       .  T
C1597      C1598   1.401       .  A
C1597      C1602   1.405       .  A
C1598      C1599   1.392       .  A
C1598      H1603   1.085       .  S
C1599      C1600   1.428       .  A
C1599      C1606   1.438       .  S
C1600      C1601   1.435       .  A
C1601      C1602   1.410       .  A
C1601      H1604   1.080       .  S
C1602      C1605   1.443       .  S
C1605      N1607   1.157       .  T
C1606      N1608   1.156   1_565  T
C1609      C1610   1.396       .  A
C1609      C1614   1.413       .  A
C1610      C1611   1.398       .  A
C1610      H1615   1.081       .  S
C1611      C1612   1.442       .  A
C1611      C1618   1.440       .  S
C1612      C1613   1.423       .  A
C1613      C1614   1.407       .  A
C1613      H1616   1.082       .  S
C1614      C1617   1.444       .  S
C1617      N1619   1.157       .  T
C1618      N1620   1.158       .  T
C1621      C1622   1.389       .  A
C1621      C1626   1.408       .  A
C1622      C1623   1.404       .  A
C1622      H1627   1.085       .  S
C1623      C1624   1.460       .  A
C1623      C1630   1.445   1_565  S
C1624      C1625   1.401       .  A
C1625      C1626   1.384       .  A
C1625      H1628   1.083       .  S
C1626      C1629   1.427       .  S
C1629      N1631   1.152       .  T
C1630      N1632   1.157       .  T
C1633      C1634   1.427       .  A
C1633      C1638   1.381       .  A
C1634      C1635   1.406       .  A
C1634      H1639   1.079       .  S
C1635      C1636   1.417       .  A
C1635      C1642   1.444       .  S
C1636      C1637   1.412   1_455  A
C1637      C1638   1.394   1_655  A
C1637      H3344   1.068       .  S
C1638      C1641   1.426   1_455  S
H1640      C3341   1.068       .  S
C1641      N3347   1.153       .  T
C1642      N1644   1.157       .  T
N1643      C3345   1.153       .  T
C1645      C1646   1.400       .  A
C1645      C1650   1.420       .  A
C1646      C1647   1.393       .  A
C1646      H1651   1.086       .  S
C1647      C1648   1.417       .  A
C1647      C1654   1.444       .  S
C1648      C1649   1.399       .  A
C1649      C1650   1.388       .  A
C1649      H1652   1.085       .  S
C1650      C1653   1.448       .  S
C1653      N1655   1.157   1_455  T
C1654      N1656   1.157       .  T
C1657      C1658   1.409       .  A
C1657      C1662   1.436       .  A
C1658      C1659   1.394       .  A
C1658      H1663   1.079       .  S
C1659      C1660   1.411       .  A
C1659      C1666   1.444       .  S
C1660      C1661   1.392       .  A
C1661      C1662   1.400       .  A
C1661      H1664   1.085   1_565  S
C1662      C1665   1.442   1_565  S
C1665      N1667   1.158       .  T
C1666      N1668   1.157       .  T
C1669      C1670   1.428       .  A
C1669      C1674   1.370       .  A
C1670      C1671   1.422       .  A
C1670      H1675   1.081       .  S
C1671      C1672   1.416       .  A
C1671      C1678   1.442   1_565  S
C1672      C1673   1.411       .  A
C1673      C1674   1.407       .  A
C1673      H1676   1.074       .  S
C1674      C1677   1.418       .  S
C1677      N1679   1.154       .  T
C1678      N1680   1.157       .  T
C1681      C1682   1.434   1_455  A
C1681      C1686   1.384       .  A
C1682      C1683   1.411       .  A
C1682      H1687   1.075       .  S
C1683      C1684   1.410   1_655  A
C1683      C1690   1.443       .  S
C1684      C1685   1.418       .  A
C1685      C1686   1.411       .  A
C1686      C1689   1.430   1_565  S
C1689      N1691   1.155       .  T
C1690      N3396   1.157       .  T
N1692      C3394   1.157       .  T
C1693      C1694   1.401       .  A
C1693      C1698   1.421       .  A
C1694      C1695   1.400       .  A
C1694      H1699   1.084       .  S
C1695      C1696   1.420       .  A
C1695      C1702   1.445       .  S
C1696      C1697   1.401       .  A
C1697      C1698   1.395       .  A
C1697      H1700   1.086       .  S
C1698      C1701   1.446       .  S
C1701      N1703   1.157   1_565  T
C1702      N1704   1.157   1_455  T
C1705      C1706   1.555       .  S
C1705      C1711   1.498       .  S
C1705      C1709   1.489       .  S
C1705      C2533   1.549       .  S
C1706      H1713   1.067       .  S
C1706      C1707   1.397       .  D
C1707      C1708   1.661       .  S
C1707      C1764   1.618       .  S
C1708      C1712   1.637       .  S
C1708      C1710   1.553       .  S
C1708      H1714   1.094       .  S
C1709      H1715   1.087       .  S
C1709      C1710   1.304       .  D
C1710      C2548   1.473       .  S
C1711      H1716   1.060       .  S
C1711      C1712   1.324       .  D
C1712      C1830   1.617       .  S
C1717      C1718   1.505       .  S
C1717      C1723   1.543       .  S
C1717      C1721   1.504       .  S
C1717      C2509   1.528       .  S
C1718      H1725   1.075       .  S
C1718      C1719   1.374       .  D
C1719      C1720   1.682       .  S
C1719      C1838   1.616       .  S
C1720      C1724   1.625       .  S
C1720      C1722   1.566       .  S
C1720      H1726   1.106       .  S
C1721      H1727   1.091       .  S
C1721      C1722   1.327       .  D
C1722      C2521   1.507       .  S
C1723      H1728   1.073       .  S
C1723      C1724   1.358       .  D
C1724      C1766   1.617       .  S
C1729      C1730   1.540       .  S
C1729      C1735   1.518       .  S
C1729      C1733   1.480       .  S
C1729      C2485   1.530       .  S
C1730      H1737   1.076       .  S
C1730      C1731   1.389       .  D
C1731      C1732   1.690       .  S
C1731      C1832   1.640       .  S
C1732      C1736   1.632       .  S
C1732      C1734   1.570       .  S
C1732      H1738   1.102       .  S
C1733      H1739   1.088       .  S
C1733      C1734   1.312       .  D
C1734      C2497   1.468       .  S
C1735      H1740   1.058       .  S
C1735      C1736   1.365       .  D
C1736      C1837   1.633       .  S
O1741      C1756   1.270       .  A
O1741     Al1749   1.921       .  S
C1742      O1752   1.258       .  A
C1742      O1743   1.261       .  A
C1742      C2500   1.475       .  S
O1743     Al1745   1.883       .  S
O1744      C1746   1.266       .  A
O1744     Al1745   1.939       .  S
Al1745     O1753   1.921       .  S
Al1745     O1755   1.892       .  S
Al1745     O1754   1.779       .  S
C1746      O1759   1.240       .  A
C1746      C2545   1.486       .  S
O1747      C1757   1.273       .  A
O1747     Al1749   1.943       .  S
O1748      C1761   1.260       .  A
O1748     Al1758   1.917       .  S
Al1749     O1762   1.827       .  S
Al1749     O1759   1.810       .  S
Al1749     O1754   1.791       .  S
O1750      C1757   1.266       .  A
O1750     Al1758   1.907       .  S
O1751      C1760   1.267       .  A
O1751     Al1758   1.893       .  S
O1752     Al1758   1.910       .  S
O1753      C1760   1.265       .  A
O1754     Al1758   1.777       .  S
O1755      C1756   1.258       .  A
C1756      C2473   1.493       .  S
C1757      C2524   1.506       .  S
C1760      C2461   1.484       .  S
C1761      O1762   1.243       .  A
C1761      C2449   1.483       .  S
C1763      C1773   1.640       .  S
C1763      C2616   1.520   1_545  A
C1763      C1768   1.437       .  A
C1764      C2615   1.522       .  A
C1764      C1765   1.448       .  A
C1765      C1766   1.435       .  A
C1765      H1770   1.066       .  S
C1766      C2619   1.501       .  A
C1767      C1802   1.596       .  S
C1767      C2618   1.503   1_545  A
C1767      C1768   1.449       .  A
C1768      H1769   1.068       .  S
C1771      C1772   1.561       .  S
C1771      C1777   1.496       .  S
C1771      C1775   1.478       .  S
C1771      C2428   1.550       .  S
C1772      H1779   1.073       .  S
C1772      C1773   1.375       .  D
C1773      C1774   1.660       .  S
C1774      C1778   1.651       .  S
C1774      C1776   1.554       .  S
C1774      H1780   1.104       .  S
C1775      H1781   1.090   1_556  S
C1775      C1776   1.326       .  D
C1776      C2437   1.474   1_556  S
C1777      H1782   1.051       .  S
C1777      C1778   1.363       .  D
C1778      C1841   1.606       .  S
C1783      C1784   1.525       .  S
C1783      C1789   1.492       .  S
C1783      C1787   1.479       .  S
C1783      C2401   1.555       .  S
C1784      H1791   1.070       .  S
C1784      C1785   1.393       .  D
C1785      C1786   1.684       .  S
C1785      C1840   1.631       .  S
C1786      C1790   1.670       .  S
C1786      C1788   1.563       .  S
C1786      H1792   1.105       .  S
C1787      H1793   1.072   1_556  S
C1787      C1788   1.314       .  D
C1788      C2413   1.496   1_556  S
C1789      H1794   1.060       .  S
C1789      C1790   1.330       .  D
C1790      C1829   1.639       .  S
C1795      C1796   1.532       .  S
C1795      C1801   1.545       .  S
C1795      C1799   1.490       .  S
C1795      C2377   1.525       .  S
C1796      H1803   1.075       .  S
C1796      C1797   1.372       .  D
C1797      C1798   1.665       .  S
C1797      C1833   1.598       .  S
C1798      C1802   1.593       .  S
C1798      C1800   1.551       .  S
C1798      H1804   1.096       .  S
C1799      H1805   1.090   1_556  S
C1799      C1800   1.311       .  D
C1800      C2389   1.466   1_556  S
C1801      H1806   1.061       .  S
C1801      C1802   1.358       .  D
O1807      C1822   1.266       .  A
O1807     Al1815   1.924       .  S
C1808      O1818   1.277       .  A
C1808      O1809   1.255       .  A
C1808      C2440   1.506       .  S
O1809     Al1811   1.854       .  S
O1810      C1812   1.263       .  A
O1810     Al1811   1.936       .  S
Al1811     O1819   1.906       .  S
Al1811     O1821   1.857       .  S
Al1811     O1820   1.816       .  S
C1812      O1825   1.262       .  A
C1812      C2392   1.495       .  S
O1813      C1823   1.263       .  A
O1813     Al1815   1.953       .  S
O1814      C1827   1.263       .  A
O1814     Al1824   1.897       .  S
Al1815     O1828   1.874       .  S
Al1815     O1825   1.885       .  S
Al1815     O1820   1.799       .  S
O1816      C1823   1.257       .  A
O1816     Al1824   1.834       .  S
O1817      C1826   1.244       .  A
O1817     Al1824   1.847       .  S
O1818     Al1824   1.968       .  S
O1819      C1826   1.258       .  A
O1820     Al1824   1.788       .  S
O1821      C1822   1.249       .  A
C1822      C2341   1.469       .  S
C1823      C2416   1.504       .  S
C1826      C2365   1.479       .  S
C1827      O1828   1.256       .  A
C1827      C2353   1.477       .  S
C1829      C1834   1.422       .  A
C1830      C1831   1.444       .  A
C1831      C1832   1.440       .  A
C1831      H1836   1.071       .  S
C1833      C1834   1.442       .  A
C1834      H1835   1.070       .  S
C1837      C1838   1.457       .  A
C1837      C1842   1.479       .  A
C1838      C1839   1.485       .  A
C1839      C1840   1.492       .  A
C1839      H1844   1.080       .  S
C1840      C1841   1.454       .  A
C1841      C1842   1.475       .  A
C1842      H1843   1.073       .  S
C1845      C2317   1.532       .  S
C1846      C1847   1.369       .  D
C1847      C1848   1.654       .  S
C1847      C1961   1.597       .  S
C1848      C1852   1.637       .  S
C1848      C1850   1.555       .  S
C1848      H1854   1.105       .  S
C1849      H1855   1.095       .  S
C1849      C1850   1.323       .  D
C1850      C2329   1.480       .  S
C1851      C1852   1.380       .  D
C1852      C1978   1.612       .  S
C1857      C1858   1.482       .  S
C1857      C1863   1.532       .  S
C1857      C1861   1.481       .  S
C1857      C2296   1.526       .  S
C1858      H1865   1.052       .  S
C1858      C1859   1.304       .  D
C1859      C1860   1.638       .  S
C1859      C1969   1.590       .  S
C1860      C1864   1.668       .  S
C1860      C1862   1.564       .  S
C1860      H1866   1.106       .  S
C1861      H1867   1.086       .  S
C1861      C1862   1.302       .  D
C1862      C2308   1.491       .  S
C1863      H1868   1.067       .  S
C1863      C1864   1.395       .  D
C1864      C1965   1.593       .  S
C1869      C2722   1.496       .  S
C1869      C2727   1.494       .  S
C1869      C2725   1.495       .  S
C1869      C2269   1.517       .  S
C1870      C2721   1.490       .  S
C1870      H2729   1.061       .  S
C1870      C1871   1.367       .  D
C1871      C1872   1.651       .  S
C1871      C1977   1.616       .  S
C1872      C1876   1.687       .  S
C1872      C1874   1.546       .  S
C1872      H1878   1.105       .  S
C1873      C2721   1.490       .  S
C1873      H1879   1.070       .  S
C1873      C1874   1.306       .  D
C1874      C2281   1.471       .  S
C1875      C2721   1.507       .  S
C1875      H2732   1.069       .  S
C1875      C1876   1.366       .  D
C1876      C1973   1.630       .  S
H1877      C2722   1.065       .  S
H1880      C2727   1.070       .  S
O1881      C1896   1.238       .  A
O1881     Al1889   1.826       .  S
C1882      O1892   1.262       .  A
C1882      O1883   1.266       .  A
C1882      C2284   1.490       .  S
O1883     Al1885   1.935       .  S
O1884      C1886   1.261       .  A
O1884     Al1885   1.847       .  S
Al1885     O1893   1.890       .  S
Al1885     O1895   1.895       .  S
Al1885     O1894   1.800       .  S
C1886      O1899   1.280       .  A
C1886      C2332   1.496       .  S
O1887      C1897   1.251       .  A
O1887     Al1889   1.833       .  S
O1888      C1901   1.260       .  A
O1888     Al1898   1.873       .  S
Al1889     O1902   1.921       .  S
Al1889     O1899   1.968       .  S
Al1889     O1894   1.776       .  S
O1890      C1897   1.260       .  A
O1890     Al1898   1.946       .  S
O1891      C1900   1.264       .  A
O1891     Al1898   1.911       .  S
O1892     Al1898   1.874       .  S
O1893      C1900   1.258       .  A
O1894     Al1898   1.801       .  S
O1895      C1896   1.252       .  A
C1896      C2260   1.467       .  S
C1897      C2305   1.499       .  S
C1900      C2236   1.484       .  S
C1901      O1902   1.270       .  A
C1901      C2245   1.494       .  S
C1903      C1904   1.504       .  S
C1903      C1909   1.527       .  S
C1903      C1907   1.483       .  S
C1903      C2368   1.531       .  S
C1904      H1911   1.054       .  S
C1904      C1905   1.375       .  D
C1905      C1906   1.638       .  S
C1905      C2833   1.597   1_545  S
C1906      C1910   1.657       .  S
C1906      C1908   1.556       .  S
C1906      H1912   1.102       .  S
C1907      H1913   1.090       .  S
C1907      C1908   1.318       .  D
C1908      C2221   1.485       .  S
C1909      H1914   1.082       .  S
C1909      C1910   1.357       .  D
C1910      C1964   1.605       .  S
C1915      C1916   1.491       .  S
C1915      C1921   1.503       .  S
C1915      C1919   1.489       .  S
C1915      C2356   1.526       .  S
C1916      H1923   1.071       .  S
C1916      C1917   1.353       .  D
C1917      C1918   1.672       .  S
C1917      C1970   1.627       .  S
C1918      C1922   1.653       .  S
C1918      C1920   1.549       .  S
C1918      H1924   1.102       .  S
C1919      H1925   1.084       .  S
C1919      C1920   1.314       .  D
C1920      C2209   1.483       .  S
C1921      H1926   1.068       .  S
C1921      C1922   1.374       .  D
C1927      C1928   1.546       .  S
C1927      C1933   1.513       .  S
C1927      C1931   1.481       .  S
C1927      C2344   1.510       .  S
C1928      H1935   1.079       .  S
C1928      C1929   1.395       .  D
C1929      C1930   1.659       .  S
C1930      C1934   1.640       .  S
C1930      C1932   1.548       .  S
C1930      H1936   1.098       .  S
C1931      H1937   1.098       .  S
C1931      C1932   1.309       .  D
C1932      C2197   1.476       .  S
C1933      H1938   1.066       .  S
C1933      C1934   1.322       .  D
C1934      C2824   1.606   1_545  S
O1939      C1954   1.256       .  A
O1939     Al1947   1.875       .  S
C1940      O1950   1.256       .  A
C1940      O1941   1.273       .  A
C1940      C2224   1.495       .  S
O1941     Al2795   1.944   1_545  S
O1942      C1944   1.246       .  A
Al1943     O2793   1.941       .  S
Al1943     O2803   1.839       .  S
C1944      O1957   1.268       .  A
C1944      C2212   1.481       .  S
O1945      C1955   1.254   1_565  A
O1945     Al2799   1.849       .  S
O1946      C1959   1.257       .  A
Al1947     O2797   1.845       .  S
Al1947     O2812   1.924       .  S
Al1947     O1957   1.949       .  S
Al1947     O2804   1.791       .  S
O1948      C1955   1.267       .  A
O1949      C1958   1.266       .  A
O1949     Al1956   1.931       .  S
O1950     Al1956   1.866       .  S
O1951      C1958   1.245       .  A
O1951     Al2795   1.842   1_545  S
O1952     Al2799   1.792   1_545  S
O1953      C1954   1.271       .  A
C1954      C2404   1.502       .  S
C1955      C2200   1.474       .  S
C1958      C2425   1.482       .  S
C1959      O1960   1.265       .  A
C1959      C2380   1.485       .  S
O1960     Al2799   1.925   1_545  S
C1961      C1962   1.502       .  A
C1961      C1966   1.431       .  A
C1962      C1963   1.429       .  A
C1963      C1964   1.421       .  A
C1963      H1968   1.063       .  S
C1964      C1965   1.508       .  A
C1965      C1966   1.434       .  A
C1966      H1967   1.072       .  S
C1969      C1970   1.531       .  A
C1969      C1974   1.423       .  A
C1970      C1971   1.413       .  A
C1971      C1972   1.422       .  A
C1971      H1976   1.070       .  S
C1972      C2786   1.592       .  S
C1972      C1973   1.535       .  A
C1973      C1974   1.422       .  A
C1974      H1975   1.074       .  S
C1977      C1978   1.456       .  A
C1977      C1982   1.486       .  A
C1978      C1979   1.463       .  A
C1979      C1980   1.486       .  A
C1979      H1984   1.081       .  S
C1980      C1981   1.448       .  A
C1981      C2757   1.610       .  S
C1981      C1982   1.464       .  A
C1982      H1983   1.080       .  S
C1985      C1986   1.546       .  S
C1985      C1991   1.525       .  S
C1985      C1989   1.475       .  S
C1985      C2452   1.538       .  S
C1986      H1993   1.076       .  S
C1986      C1987   1.373       .  D
C1987      C1988   1.659       .  S
C1987      C2101   1.615       .  S
C1988      C1992   1.656       .  S
C1988      C1990   1.561       .  S
C1988      H1994   1.106       .  S
C1989      H1995   1.093       .  S
C1989      C1990   1.325       .  D
C1990      C2185   1.484       .  S
C1991      H1996   1.044       .  S
C1991      C1992   1.374       .  D
C1992      C2970   1.639       .  S
C1997      C1998   1.519       .  S
C1997      C2003   1.505       .  S
C1997      C2001   1.487       .  S
C1997      C2464   1.533       .  S
C1998      H2005   1.076       .  S
C1998      C1999   1.383       .  D
C1999      C2000   1.662       .  S
C2000      C2004   1.669       .  S
C2000      C2002   1.561       .  S
C2000      H2006   1.105       .  S
C2001      H2007   1.094       .  S
C2001      C2002   1.315       .  D
C2002      C2176   1.484       .  S
C2003      H2008   1.072       .  S
C2003      C2004   1.345       .  D
C2004      C2110   1.613       .  S
C2009      C2010   1.516       .  S
C2009      C2015   1.550       .  S
C2009      C2013   1.493       .  S
C2009      C2476   1.514       .  S
C2010      H2017   1.078       .  S
C2010      C2011   1.330       .  D
C2011      C2012   1.640       .  S
C2011      C2964   1.601       .  S
C2012      C2016   1.656       .  S
C2012      C2014   1.562       .  S
C2012      H2018   1.094       .  S
C2013      H2019   1.098       .  S
C2013      C2014   1.309       .  D
C2014      C2161   1.500       .  S
C2015      H2020   1.078       .  S
C2015      C2016   1.393       .  D
O2021      C2036   1.241       .  A
O2021     Al2029   1.824       .  S
C2022      O2032   1.257       .  A
C2022      C2173   1.487       .  S
O2023     Al2025   1.928   1_455  S
O2024      C2878   1.256   1_545  A
O2024     Al2025   1.846       .  S
Al2025     O2033   1.848       .  S
Al2025     O2035   1.929   1_545  S
Al2025     O2034   1.784       .  S
C2026      O2876   1.255       .  A
C2026      O2039   1.272       .  A
C2026      C2188   1.492       .  S
O2027     Al2029   1.841       .  S
O2028      C2893   1.260   1_545  A
O2028     Al2038   1.888       .  S
Al2029     O2042   1.950       .  S
Al2029     O2039   1.946       .  S
Al2029     O2886   1.792       .  S
O2030      C2889   1.266       .  A
O2030     Al2038   1.934   1_565  S
O2031      C2040   1.268       .  A
O2031     Al2038   1.931       .  S
O2032     Al2038   1.888       .  S
O2034     Al2881   1.783   1_545  S
O2035      C2888   1.263       .  A
C2036      O2887   1.262       .  A
C2036      C2512   1.479       .  S
C2037      O2882   1.265       .  A
C2037      C2164   1.488       .  S
C2040      C2488   1.481       .  S
C2041      O2880   1.259       .  A
C2041      C2536   1.508       .  S
C2043      C2044   1.519       .  S
C2043      C2049   1.483       .  S
C2043      C2047   1.482       .  S
C2043      C3085   1.537   1_545  S
C2044      H2051   1.062   1_545  S
C2044      C2045   1.386       .  D
C2045      C2046   1.691       .  S
C2045      C2113   1.647       .  S
C2046      C2050   1.668       .  S
C2046      C2048   1.565       .  S
C2046      H2052   1.106       .  S
C2047      H2053   1.086       .  S
C2047      C2048   1.317       .  D
C2048      C2149   1.483       .  S
C2049      H2054   1.052       .  S
C2049      C2050   1.353       .  D
C2050      C2120   1.640       .  S
C2055      C2056   1.526       .  S
C2055      C2061   1.541       .  S
C2055      C2059   1.512       .  S
C2056      H2063   1.078       .  S
C2056      C2057   1.378       .  D
C2057      C2058   1.657       .  S
C2057      C2121   1.624       .  S
C2058      C2062   1.635       .  S
C2058      C2060   1.565       .  S
C2058      H2064   1.107       .  S
C2059      H2065   1.091       .  S
C2059      C2060   1.333       .  D
C2060      C2137   1.507       .  S
C2061      H2066   1.064   1_655  S
C2061      C2062   1.362       .  D
C2062      C2104   1.595       .  S
C2067      C2068   1.537       .  S
C2067      C2073   1.518       .  S
C2067      C2071   1.485       .  S
C2067      C2248   1.536       .  S
C2068      H2075   1.071       .  S
C2068      C2069   1.370       .  D
C2069      C2070   1.662       .  S
C2069      C2102   1.597       .  S
C2070      C2074   1.617       .  S
C2070      C2072   1.555       .  S
C2070      H2076   1.097       .  S
C2071      H2077   1.079       .  S
C2071      C2072   1.319       .  D
C2072      C2125   1.476       .  S
C2073      H2078   1.055       .  S
C2073      C2074   1.361       .  D
C2074      C2109   1.617       .  S
O2079      C2094   1.260       .  A
O2079     Al2087   1.921       .  S
C2080      O2090   1.275       .  A
C2080      O2081   1.246       .  A
C2080      C2128   1.504       .  S
O2081     Al2083   1.809       .  S
O2082      C2084   1.270       .  A
O2082     Al2083   1.949       .  S
Al2083     O2091   1.906       .  S
Al2083     O2093   1.834       .  S
Al2083     O2092   1.795       .  S
C2084      O2097   1.274       .  A
C2084      C2140   1.511       .  S
O2085      C2095   1.258       .  A
O2085     Al2087   1.919       .  S
O2086      C2099   1.267       .  A
O2086     Al2096   1.923       .  S
Al2087     O2100   1.935       .  S
Al2087     O2097   1.932       .  S
Al2087     O2092   1.783       .  S
O2088      C2095   1.264       .  A
O2088     Al2096   1.887       .  S
O2089      C2098   1.258       .  A
O2089     Al2096   1.897       .  S
O2090     Al2096   1.989       .  S
O2091      C2098   1.261       .  A
O2092     Al2096   1.779       .  S
O2093      C2094   1.243       .  A
C2094      C2320   1.474       .  S
C2095      C2152   1.489       .  S
C2098      C2293   1.490       .  S
C2099      O2100   1.273       .  A
C2099      C2272   1.502       .  S
C2101      C2102   1.509       .  A
C2101      C2106   1.426       .  A
C2102      C2103   1.433       .  A
C2103      C2104   1.430       .  A
C2103      H2108   1.062       .  S
C2104      C2105   1.497       .  A
C2105      C2106   1.432       .  A
C2106      H2107   1.054       .  S
C2109      C2110   1.519       .  A
C2109      C2114   1.452       .  A
C2110      C2111   1.421       .  A
C2111      C2112   1.434       .  A
C2111      H2116   1.071       .  S
C2112      C2863   1.599   1_545  S
C2112      C2113   1.529       .  A
C2113      C2114   1.440       .  A
C2114      H2115   1.069       .  S
C2117      C2118   1.473       .  A
C2117      C2122   1.498       .  A
C2118      C2844   1.650       .  S
C2118      C2119   1.471       .  A
C2119      C2120   1.500       .  A
C2119      H2124   1.070       .  S
C2120      C2121   1.462       .  A
C2121      C2122   1.473       .  A
C2122      H2123   1.078       .  S
C2125      C2126   1.404       .  A
C2125      C2130   1.430       .  A
C2126      C2127   1.396       .  A
C2126      H2131   1.086       .  S
C2127      C2128   1.417       .  A
C2127      C2134   1.445       .  S
C2128      C2129   1.407       .  A
C2129      C2130   1.418       .  A
C2129      H2132   1.084       .  S
C2130      C2133   1.445       .  S
C2133      N2135   1.157       .  T
C2134      N2136   1.157       .  T
C2137      C2138   1.375       .  A
C2137      C2142   1.437       .  A
C2138      C2139   1.400       .  A
C2138      H2143   1.079       .  S
C2139      C2140   1.404       .  A
C2139      C2146   1.400       .  S
C2140      C2141   1.403       .  A
C2141      C2142   1.421       .  A
C2141      H2144   1.083       .  S
C2142      C2145   1.436       .  S
C2145      N2147   1.157       .  T
C2146      N2148   1.143       .  T
C2149      C2150   1.422       .  A
C2149      C2154   1.419       .  A
C2150      C2151   1.406       .  A
C2150      H2155   1.085       .  S
C2151      C2152   1.409       .  A
C2151      C2158   1.443       .  S
C2152      C2153   1.409       .  A
C2153      C2154   1.406       .  A
C2153      H2156   1.084       .  S
C2154      C2157   1.444       .  S
C2157      N2159   1.157       .  T
C2158      N2160   1.157       .  T
C2161      C2162   1.421       .  A
C2161      C2166   1.427       .  A
C2162      C2163   1.407       .  A
C2162      H3019   1.080       .  S
C2163      C2164   1.398       .  A
C2163      C3022   1.445       .  S
C2164      C2165   1.404       .  A
C2165      C2166   1.403       .  A
H2167      C3014   1.080       .  S
C2169      N2171   1.157       .  T
C2170      C3015   1.444   1_545  S
C2170      N2172   1.158       .  T
C2173      C2174   1.406       .  A
C2173      C2178   1.403       .  A
C2174      C2175   1.408       .  A
C2174      H2179   1.078       .  S
C2175      C2176   1.414       .  A
C2175      C2182   1.447       .  S
C2176      C2177   1.420       .  A
C2177      C2178   1.392       .  A
C2177      H2180   1.087       .  S
C2178      C2181   1.444       .  S
C2181      N2183   1.157       .  T
C2182      N2184   1.157       .  T
C2185      C2186   1.399       .  A
C2185      C2190   1.437       .  A
C2186      C2187   1.400       .  A
C2186      H2191   1.085       .  S
C2187      C2188   1.406       .  A
C2187      C2194   1.447       .  S
C2188      C2189   1.399       .  A
C2189      C2190   1.414       .  A
C2189      H2192   1.084       .  S
C2190      C2193   1.444       .  S
C2193      N2195   1.157       .  T
C2194      N3048   1.157       .  T
N2196      C3046   1.157       .  T
C2197      C2198   1.404       .  A
C2197      C2202   1.433       .  A
C2198      C2199   1.396       .  A
C2198      H2203   1.080   1_545  S
C2199      C2200   1.404       .  A
C2199      C3058   1.446   1_545  S
C2200      C2201   1.396       .  A
C2201      C2202   1.400       .  A
C2201      H2204   1.084       .  S
C2202      C2205   1.449   1_655  S
C2206      C3051   1.445       .  S
C2206      N2208   1.157       .  T
C2209      C2210   1.415       .  A
C2209      C2214   1.425       .  A
C2210      C2211   1.393       .  A
C2210      H2215   1.086       .  S
C2211      C2212   1.403       .  A
C2211      C2218   1.446       .  S
C2212      C2213   1.397       .  A
C2213      C2214   1.411       .  A
C2213      H2216   1.079       .  S
C2214      C2217   1.448       .  S
C2217      N2219   1.157       .  T
C2218      N2220   1.157   1_655  T
C2221      C2222   1.417       .  A
C2221      C2226   1.420       .  A
C2222      C2223   1.407       .  A
C2222      H2227   1.086   1_545  S
C2223      C2224   1.402       .  A
C2223      C2230   1.443       .  S
C2224      C2225   1.403       .  A
C2225      C2226   1.406       .  A
C2225      H2228   1.084       .  S
C2226      C2229   1.447       .  S
C2229      N2231   1.157       .  T
C2230      N2232   1.157   1_545  T
C2233      C2895   1.538       .  S
C2233      C2234   1.432       .  A
C2233      C2238   1.394       .  A
C2234      C2235   1.397       .  A
C2234      H3091   1.073       .  S
C2235      C2236   1.410       .  A
C2235      C2242   1.446       .  S
C2236      C2237   1.413       .  A
C2237      C2238   1.410       .  A
C2237      H2240   1.067       .  S
C2238      C2241   1.435       .  S
H2239      C3086   1.074       .  S
C2241      N2243   1.156       .  T
C2242      N2244   1.157       .  T
C2245      C2246   1.415       .  A
C2245      C2250   1.419       .  A
C2246      C2247   1.402       .  A
C2246      H2251   1.072       .  S
C2247      C2248   1.384       .  A
C2247      C2254   1.432       .  S
C2248      C2249   1.421       .  A
C2249      C2250   1.411       .  A
C2249      H2252   1.079       .  S
C2250      C2253   1.443       .  S
C2253      N2255   1.157       .  T
C2254      N2256   1.155       .  T
C2257      C2258   1.417       .  A
C2257      C2262   1.433       .  A
C2258      C2259   1.398       .  A
C2259      C2260   1.408       .  A
C2259      C2266   1.445       .  S
C2260      C2261   1.390       .  A
C2261      C2262   1.390       .  A
C2261      H2264   1.086       .  S
C2262      C2265   1.442       .  S
C2265      N2267   1.158       .  T
C2266      N2268   1.157       .  T
C2269      C2270   1.410       .  A
C2269      C2274   1.392       .  A
C2270      C2271   1.405       .  A
C2270      H2275   1.083       .  S
C2271      C2272   1.433       .  A
C2271      C2278   1.444       .  S
C2272      C2273   1.421       .  A
C2273      C2274   1.419       .  A
C2273      H2276   1.080       .  S
C2274      C2277   1.430       .  S
C2277      N2279   1.155       .  T
C2278      N2280   1.157       .  T
C2281      C2282   1.377       .  A
C2281      C2286   1.437       .  A
C2282      C2283   1.385       .  A
C2282      H2287   1.086       .  S
C2283      C2284   1.409       .  A
C2283      C2290   1.396       .  S
C2284      C2285   1.396       .  A
C2285      C2286   1.403       .  A
C2285      H2288   1.084       .  S
C2286      C2289   1.445       .  S
C2289      N3143   1.157       .  T
C2290      N2292   1.142       .  T
N2291      C3141   1.157       .  T
C2293      C2294   1.393       .  A
C2293      C2298   1.405       .  A
C2294      C2295   1.406       .  A
C2294      H2299   1.085       .  S
C2295      C2296   1.467       .  A
C2295      C2302   1.444       .  S
C2296      C2297   1.397       .  A
C2297      C2298   1.398       .  A
C2297      H2300   1.084       .  S
C2298      C2301   1.389       .  S
C2301      N2303   1.138       .  T
C2302      N2304   1.157       .  T
C2305      C2306   1.404       .  A
C2305      C2310   1.416       .  A
C2306      C2307   1.400       .  A
C2306      H2311   1.086       .  S
C2307      C2308   1.434       .  A
C2307      C2314   1.447       .  S
C2308      C2309   1.421       .  A
C2309      C2310   1.418       .  A
C2309      H2312   1.085       .  S
C2310      C2313   1.441       .  S
C2313      N2315   1.157       .  T
C2314      N2316   1.157       .  T
C2317      C2318   1.419       .  A
C2317      C2322   1.450       .  A
C2318      C2319   1.398       .  A
C2318      H2323   1.078       .  S
C2319      C2320   1.412       .  A
C2319      C2326   1.446       .  S
C2320      C2321   1.397       .  A
C2321      C2322   1.400       .  A
C2321      H2324   1.085       .  S
C2322      C2325   1.445       .  S
C2325      N2327   1.158       .  T
C2326      N2328   1.157       .  T
C2329      C2330   1.410       .  A
C2329      C2334   1.429       .  A
C2330      C2331   1.402       .  A
C2330      H2335   1.086       .  S
C2331      C2332   1.410       .  A
C2331      C2338   1.447       .  S
C2332      C2333   1.404       .  A
C2333      C2334   1.410       .  A
C2333      H2336   1.085       .  S
C2334      C2337   1.438       .  S
C2337      N2339   1.156       .  T
C2338      N2340   1.158       .  T
C2341      C2342   1.388       .  A
C2341      C2346   1.399       .  A
C2342      C2343   1.401       .  A
C2342      H2347   1.086       .  S
C2343      C2344   1.460       .  A
C2343      C2350   1.447       .  S
C2344      C2345   1.390       .  A
C2345      C2346   1.385       .  A
C2345      H2348   1.084       .  S
C2346      C2349   1.404       .  S
C2349      N2351   1.146       .  T
C2350      N2352   1.157   1_545  T
C2353      C2354   1.405       .  A
C2353      C2358   1.414       .  A
C2354      C2355   1.404       .  A
C2354      H2359   1.081       .  S
C2355      C2356   1.438       .  A
C2355      C2362   1.442       .  S
C2356      C2357   1.415       .  A
C2357      C2358   1.404       .  A
C2357      H2360   1.081       .  S
C2358      C2361   1.443       .  S
C2361      N2363   1.157       .  T
C2362      N2364   1.158       .  T
C2365      C2366   1.399       .  A
C2365      C2370   1.413       .  A
C2366      C2367   1.399       .  A
C2366      H2371   1.083       .  S
C2367      C2368   1.429       .  A
C2367      C2374   1.436       .  S
C2368      C2369   1.427       .  A
C2369      C2370   1.410       .  A
C2369      H2372   1.077       .  S
C2370      C2373   1.446       .  S
C2373      N2375   1.157       .  T
C2374      N2376   1.156       .  T
C2377      C2378   1.422       .  A
C2377      C2382   1.386       .  A
C2378      C2379   1.408   1_556  A
C2378      H2383   1.082   1_545  S
C2379      C2380   1.417       .  A
C2379      C2386   1.445   1_545  S
C2380      C2381   1.407       .  A
C2381      C2382   1.390   1_554  A
C2381      H2384   1.074   1_655  S
C2382      C2385   1.420   1_655  S
C2385      N2387   1.150       .  T
C2386      N2388   1.157       .  T
C2389      C2390   1.364       .  A
C2389      C2394   1.439       .  A
C2390      C2391   1.378       .  A
C2390      H2395   1.085       .  S
C2391      C2392   1.402       .  A
C2391      C2398   1.381       .  S
C2392      C2393   1.398       .  A
C2393      C2394   1.414       .  A
C2393      H2396   1.084       .  S
C2394      C2397   1.443       .  S
C2397      N2399   1.157   1_544  T
C2398      N2400   1.136       .  T
C2401      C2402   1.437       .  A
C2401      C2406   1.394       .  A
C2402      C2403   1.418   1_556  A
C2402      H2407   1.077   1_655  S
C2403      C2404   1.412       .  A
C2403      C2410   1.445   1_655  S
C2404      C2405   1.412       .  A
C2405      C2406   1.405   1_554  A
C2405      H2408   1.065       .  S
C2406      C2409   1.431       .  S
C2409      N2411   1.154       .  T
C2413      C2414   1.418       .  A
C2413      C2418   1.435       .  A
C2414      C2415   1.421       .  A
C2414      H2419   1.085       .  S
C2415      C2416   1.420       .  A
C2415      C2422   1.442       .  S
C2416      C2417   1.405       .  A
C2417      C2418   1.400       .  A
C2417      H2420   1.086       .  S
C2418      C2421   1.450       .  S
C2421      N2423   1.157       .  T
C2422      N2424   1.157       .  T
C2425      C2426   1.389       .  A
C2425      C2430   1.410       .  A
C2426      C2427   1.400   1_554  A
C2426      H2431   1.086       .  S
C2427      C2428   1.450       .  A
C2427      C2434   1.444       .  S
C2428      C2429   1.413       .  A
C2429      C2430   1.405   1_556  A
C2429      H2432   1.079       .  S
C2430      C2433   1.443       .  S
C2433      N3287   1.157   1_545  T
C2434      N2436   1.158       .  T
N2435      C3285   1.157       .  T
C2437      C2438   1.416       .  A
C2437      C2442   1.422       .  A
C2438      C2439   1.414       .  A
C2438      H2443   1.084       .  S
C2439      C2440   1.414       .  A
C2439      C2446   1.442       .  S
C2440      C2441   1.412       .  A
C2441      C2442   1.403       .  A
C2441      H2444   1.084       .  S
C2442      C2445   1.447       .  S
C2445      N2447   1.157   1_554  T
C2446      N2448   1.157       .  T
C2449      C2450   1.402       .  A
C2449      C2454   1.405       .  A
C2450      C2451   1.392       .  A
C2450      H2455   1.085       .  S
C2451      C2452   1.429       .  A
C2451      C2458   1.438       .  S
C2452      C2453   1.433       .  A
C2453      C2454   1.405       .  A
C2453      H2456   1.080       .  S
C2454      C2457   1.443       .  S
C2457      N2459   1.157       .  T
C2458      N2460   1.157       .  T
C2461      C2462   1.396       .  A
C2461      C2466   1.417       .  A
C2462      C2463   1.398       .  A
C2462      H2467   1.082       .  S
C2463      C2464   1.443       .  A
C2463      C2470   1.441       .  S
C2464      C2465   1.417       .  A
C2465      C2466   1.404       .  A
C2465      H2468   1.082       .  S
C2466      C2469   1.445       .  S
C2469      N2471   1.157       .  T
C2470      N2472   1.158       .  T
C2473      C2474   1.390       .  A
C2473      C2478   1.409       .  A
C2474      C2475   1.405       .  A
C2474      H2479   1.085       .  S
C2475      C2476   1.463       .  A
C2475      C2482   1.446       .  S
C2476      C2477   1.397       .  A
C2477      C2478   1.386       .  A
C2477      H2480   1.084       .  S
C2478      C2481   1.423       .  S
C2481      N2483   1.151       .  T
C2482      N2484   1.157       .  T
C2485      C2486   1.428       .  A
C2485      C2490   1.386       .  A
C2486      C2487   1.404       .  A
C2486      H2491   1.075       .  S
C2487      C2488   1.413       .  A
C2487      C2494   1.444       .  S
C2488      C2489   1.413       .  A
C2489      C2490   1.397       .  A
C2490      C2493   1.429       .  S
C2494      N2496   1.157       .  T
C2497      C2498   1.400       .  A
C2497      C2502   1.418       .  A
C2498      C2499   1.399       .  A
C2498      H2503   1.086       .  S
C2499      C2500   1.422       .  A
C2499      C2506   1.444       .  S
C2500      C2501   1.400       .  A
C2501      C2502   1.388       .  A
C2501      H2504   1.085       .  S
C2502      C2505   1.446       .  S
C2505      N2507   1.157       .  T
C2506      N2508   1.158       .  T
C2509      C2510   1.406       .  A
C2509      C2514   1.435       .  A
C2510      C2511   1.394       .  A
C2510      H2515   1.079       .  S
C2511      C2512   1.414       .  A
C2511      C2518   1.443       .  S
C2512      C2513   1.392       .  A
C2513      C2514   1.398       .  A
C2513      H2516   1.084       .  S
C2514      C2517   1.442       .  S
C2517      N2519   1.158       .  T
C2518      N2520   1.157       .  T
C2521      C2522   1.427       .  A
C2521      C2526   1.372       .  A
C2522      C2523   1.420       .  A
C2522      H2527   1.079       .  S
C2523      C2524   1.410       .  A
C2523      C2530   1.441       .  S
C2524      C2525   1.411       .  A
C2525      C2526   1.408       .  A
C2525      H2528   1.074       .  S
C2526      C2529   1.420       .  S
C2529      N2531   1.155       .  T
C2530      N2532   1.157       .  T
C2533      C2534   1.440       .  A
C2533      C2538   1.387       .  A
C2534      C2535   1.414       .  A
C2534      H2539   1.078       .  S
C2535      C2536   1.408       .  A
C2535      C2542   1.444       .  S
C2536      C2537   1.418       .  A
C2537      C2538   1.409       .  A
C2537      H3392   1.063       .  S
C2538      C2541   1.432       .  S
H2540      C3389   1.063   1_545  S
C2541      N2543   1.155       .  T
C2545      C2546   1.404       .  A
C2545      C2550   1.427       .  A
C2546      C2547   1.402       .  A
C2546      H2551   1.084       .  S
C2547      C2548   1.420       .  A
C2547      C2554   1.445       .  S
C2548      C2549   1.395       .  A
C2549      C2550   1.393       .  A
C2549      H2552   1.086       .  S
C2550      C2553   1.445       .  S
C2553      N2555   1.157       .  T
C2554      N2556   1.157       .  T
C2557      C2558   1.545       .  S
C2557      C2563   1.496       .  S
C2557      C2561   1.492       .  S
C2557      C3385   1.542       .  S
C2558      H2565   1.066       .  S
C2558      C2559   1.389       .  D
C2559      C2560   1.661       .  S
C2559      C2616   1.604       .  S
C2560      C2564   1.637       .  S
C2560      C2562   1.558       .  S
C2560      H2566   1.094       .  S
C2561      H2567   1.081       .  S
C2561      C2562   1.306       .  D
C2562      C3400   1.483       .  S
C2563      H2568   1.053       .  S
C2563      C2564   1.322       .  D
C2564      C2682   1.618       .  S
C2569      C2570   1.506       .  S
C2569      C2575   1.542       .  S
C2569      C2573   1.505       .  S
C2569      C3361   1.526       .  S
C2570      H2577   1.075       .  S
C2570      C2571   1.372       .  D
C2571      C2572   1.690       .  S
C2571      C2690   1.625       .  S
C2572      C2576   1.631       .  S
C2572      C2574   1.571       .  S
C2572      H2578   1.106       .  S
C2573      H2579   1.092       .  S
C2573      C2574   1.328       .  D
C2574      C3373   1.513       .  S
C2575      H2580   1.072       .  S
C2575      C2576   1.357       .  D
C2576      C2618   1.620       .  S
C2581      C2582   1.542       .  S
C2581      C2587   1.510       .  S
C2581      C2585   1.481       .  S
C2581      C3337   1.525       .  S
C2582      H2589   1.076       .  S
C2582      C2583   1.387       .  D
C2583      C2584   1.681       .  S
C2583      C2684   1.635       .  S
C2584      C2588   1.630       .  S
C2584      C2586   1.569       .  S
C2584      H2590   1.102       .  S
C2585      H2591   1.091       .  S
C2585      C2586   1.315       .  D
C2586      C3349   1.463       .  S
C2587      H2592   1.056       .  S
C2587      C2588   1.367       .  D
C2588      C2689   1.624       .  S
O2593      C2608   1.270       .  A
O2593     Al2601   1.916       .  S
C2594      O2604   1.257       .  A
C2594      O2595   1.261       .  A
C2594      C3352   1.469       .  S
O2595     Al2597   1.885       .  S
O2596      C2598   1.267       .  A
O2596     Al2597   1.945       .  S
Al2597     O2605   1.924       .  S
Al2597     O2607   1.895       .  S
Al2597     O2606   1.783       .  S
C2598      O2611   1.240       .  A
C2598      C3397   1.489       .  S
O2599      C2609   1.274       .  A
O2599     Al2601   1.950       .  S
O2600      C2613   1.260       .  A
O2600     Al2610   1.916       .  S
Al2601     O2614   1.831       .  S
Al2601     O2611   1.809       .  S
Al2601     O2606   1.788       .  S
O2602      C2609   1.269       .  A
O2602     Al2610   1.917       .  S
O2603      C2612   1.266       .  A
O2603     Al2610   1.890       .  S
O2604     Al2610   1.902       .  S
O2605      C2612   1.267       .  A
O2606     Al2610   1.773       .  S
O2607      C2608   1.258       .  A
C2608      C3325   1.493       .  S
C2609      C3376   1.512       .  S
C2612      C3313   1.485       .  S
C2613      O2614   1.244       .  A
C2613      C3301   1.487       .  S
C2615      C2625   1.634       .  S
C2615      C2620   1.437       .  A
C2616      C2617   1.444       .  A
C2617      C2618   1.429       .  A
C2617      H2622   1.068       .  S
C2619      C2654   1.601       .  S
C2619      C2620   1.446       .  A
C2620      H2621   1.066       .  S
C2623      C2624   1.554       .  S
C2623      C2629   1.497       .  S
C2623      C2627   1.480       .  S
C2623      C3280   1.546       .  S
C2624      H2631   1.071       .  S
C2624      C2625   1.371       .  D
C2625      C2626   1.666       .  S
C2626      C2630   1.651       .  S
C2626      C2628   1.559       .  S
C2626      H2632   1.104       .  S
C2627      H2633   1.088   1_556  S
C2627      C2628   1.322       .  D
C2628      C3289   1.482   1_556  S
C2629      H2634   1.048       .  S
C2629      C2630   1.363       .  D
C2630      C2693   1.610       .  S
C2635      C2636   1.522       .  S
C2635      C2641   1.492       .  S
C2635      C2639   1.479       .  S
C2635      C3253   1.555       .  S
C2636      H2643   1.070       .  S
C2636      C2637   1.392       .  D
C2637      C2638   1.686       .  S
C2637      C2692   1.627       .  S
C2638      C2642   1.671       .  S
C2638      C2640   1.561       .  S
C2638      H2644   1.105       .  S
C2639      H2645   1.071   1_556  S
C2639      C2640   1.311       .  D
C2640      C3265   1.496   1_556  S
C2641      H2646   1.061       .  S
C2641      C2642   1.323       .  D
C2642      C2681   1.633       .  S
C2647      C2648   1.531       .  S
C2647      C2653   1.544       .  S
C2647      C2651   1.492       .  S
C2647      C3229   1.525       .  S
C2648      H2655   1.076       .  S
C2648      C2649   1.372       .  D
C2649      C2650   1.665       .  S
C2649      C2685   1.595       .  S
C2650      C2654   1.596       .  S
C2650      C2652   1.551       .  S
C2650      H2656   1.094       .  S
C2651      H2657   1.089   1_556  S
C2651      C2652   1.313       .  D
C2652      C3241   1.471   1_556  S
C2653      H2658   1.063       .  S
C2653      C2654   1.359       .  D
O2659      C2674   1.272       .  A
O2659     Al2667   1.946       .  S
C2660      O2670   1.278       .  A
C2660      O2661   1.256       .  A
C2660      C3292   1.505       .  S
O2661     Al2663   1.841       .  S
O2662      C2664   1.264       .  A
O2662     Al2663   1.940       .  S
Al2663     O2671   1.905       .  S
Al2663     O2673   1.863       .  S
Al2663     O2672   1.809       .  S
C2664      O2677   1.263       .  A
C2664      C3244   1.506       .  S
O2665      C2675   1.266       .  A
O2665     Al2667   1.956       .  S
O2666      C2679   1.262       .  A
O2666     Al2676   1.897       .  S
Al2667     O2680   1.860       .  S
Al2667     O2677   1.897       .  S
Al2667     O2672   1.794       .  S
O2668      C2675   1.258       .  A
O2668     Al2676   1.840       .  S
O2669      C2678   1.248       .  A
O2669     Al2676   1.865       .  S
O2670     Al2676   1.976       .  S
O2671      C2678   1.256       .  A
O2672     Al2676   1.786       .  S
O2673      C2674   1.250       .  A
C2674      C3193   1.483       .  S
C2675      C3268   1.503       .  S
C2678      C3217   1.480       .  S
C2679      O2680   1.253       .  A
C2679      C3205   1.470       .  S
C2681      C2686   1.419       .  A
C2682      C2683   1.444       .  A
C2683      C2684   1.442       .  A
C2683      H2688   1.073       .  S
C2685      C2686   1.439       .  A
C2686      H2687   1.069       .  S
C2689      C2690   1.457       .  A
C2689      C2694   1.481       .  A
C2690      C2691   1.486       .  A
C2691      C2692   1.496       .  A
C2691      H2696   1.080       .  S
C2692      C2693   1.452       .  A
C2693      C2694   1.472       .  A
C2694      H2695   1.076       .  S
C2697      C3169   1.526       .  S
C2698      C2699   1.352       .  D
C2699      C2700   1.682       .  S
C2699      C2813   1.607       .  S
C2700      C2704   1.669       .  S
C2700      C2702   1.530       .  S
C2700      H2706   1.105       .  S
C2701      H2707   1.091       .  S
C2701      C2702   1.316       .  D
C2702      C3181   1.474       .  S
C2703      C2704   1.373       .  D
C2704      C2830   1.638       .  S
C2709      C2710   1.482       .  S
C2709      C2715   1.531       .  S
C2709      C2713   1.483       .  S
C2709      C3148   1.522       .  S
C2710      H2717   1.049       .  S
C2710      C2711   1.303       .  D
C2711      C2712   1.639       .  S
C2711      C2821   1.592       .  S
C2712      C2716   1.673       .  S
C2712      C2714   1.565       .  S
C2712      H2718   1.106       .  S
C2713      H2719   1.082       .  S
C2713      C2714   1.300       .  D
C2714      C3160   1.494       .  S
C2715      H2720   1.060       .  S
C2715      C2716   1.394       .  D
C2716      C2817   1.590       .  S
C2721      C3121   1.517       .  S
C2722      C2723   1.374   1_545  D
C2723      C2724   1.638       .  S
C2723      C2829   1.614       .  S
C2724      C2728   1.681       .  S
C2724      C2726   1.541       .  S
C2724      H2730   1.102       .  S
C2725      H2731   1.078       .  S
C2725      C2726   1.312   1_545  D
C2726      C3133   1.463       .  S
C2727      C2728   1.357   1_545  D
C2728      C2825   1.610       .  S
O2733      C2748   1.238       .  A
O2733     Al2741   1.824       .  S
C2734      O2744   1.265       .  A
C2734      O2735   1.264       .  A
C2734      C3136   1.496       .  S
O2735     Al2737   1.927       .  S
O2736      C2738   1.262       .  A
O2736     Al2737   1.854       .  S
Al2737     O2745   1.895       .  S
Al2737     O2747   1.891       .  S
Al2737     O2746   1.801       .  S
C2738      O2751   1.279       .  A
C2738      C3184   1.493       .  S
O2739      C2749   1.252       .  A
O2739     Al2741   1.836       .  S
O2740      C2753   1.261       .  A
O2740     Al2750   1.877       .  S
Al2741     O2754   1.912       .  S
Al2741     O2751   1.962       .  S
Al2741     O2746   1.778       .  S
O2742      C2749   1.261       .  A
O2742     Al2750   1.947       .  S
O2743      C2752   1.267       .  A
O2743     Al2750   1.923       .  S
O2744     Al2750   1.893       .  S
O2745      C2752   1.260       .  A
O2746     Al2750   1.796       .  S
O2747      C2748   1.251       .  A
C2748      C3112   1.464       .  S
C2749      C3157   1.498       .  S
C2752      C3088   1.493       .  S
C2753      O2754   1.268       .  A
C2753      C3097   1.491       .  S
C2755      C2756   1.517       .  S
C2755      C2761   1.541       .  S
C2755      C2759   1.485       .  S
C2755      C3220   1.537       .  S
C2756      H2763   1.060       .  S
C2756      C2757   1.376       .  D
C2757      C2758   1.655       .  S
C2758      C2762   1.656       .  S
C2758      C2760   1.556       .  S
C2758      H2764   1.103       .  S
C2759      H2765   1.093       .  S
C2759      C2760   1.321       .  D
C2760      C3073   1.484       .  S
C2761      H2766   1.081       .  S
C2761      C2762   1.359       .  D
C2762      C2816   1.623       .  S
C2767      C2768   1.500       .  S
C2767      C2773   1.507       .  S
C2767      C2771   1.471       .  S
C2767      C3208   1.531       .  S
C2768      H2775   1.067       .  S
C2768      C2769   1.362       .  D
C2769      C2770   1.656       .  S
C2769      C2822   1.627       .  S
C2770      C2774   1.650       .  S
C2770      C2772   1.576       .  S
C2770      H2776   1.101       .  S
C2771      H2777   1.084       .  S
C2771      C2772   1.318       .  D
C2772      C3061   1.495       .  S
C2773      H2778   1.069       .  S
C2773      C2774   1.378       .  D
C2779      C2780   1.540       .  S
C2779      C2785   1.499       .  S
C2779      C2783   1.489       .  S
C2779      C3196   1.520       .  S
C2780      H2787   1.058       .  S
C2780      C2781   1.389       .  D
C2781      C2782   1.646       .  S
C2782      C2786   1.656       .  S
C2782      C2784   1.538       .  S
C2782      H2788   1.100       .  S
C2783      H2789   1.097       .  S
C2783      C2784   1.307       .  D
C2784      C3049   1.473       .  S
C2785      H2790   1.074       .  S
C2785      C2786   1.318       .  D
O2791      C2806   1.257       .  A
O2791     Al2799   1.875       .  S
C2792      O2802   1.257       .  A
C2792      O2793   1.273       .  A
C2792      C3076   1.497       .  S
O2794      C2796   1.249       .  A
C2796      O2809   1.266       .  A
C2796      C3064   1.487       .  S
O2797      C2807   1.253       .  A
O2798      C2811   1.257       .  A
Al2799     O2809   1.941       .  S
O2800      C2807   1.269       .  A
O2801      C2810   1.266       .  A
O2801     Al2808   1.930       .  S
O2802     Al2808   1.876       .  S
O2803      C2810   1.245       .  A
O2805      C2806   1.270       .  A
C2806      C3256   1.504       .  S
C2807      C3052   1.473       .  S
C2810      C3277   1.483       .  S
C2811      O2812   1.266       .  A
C2811      C3232   1.488       .  S
C2813      C2814   1.515       .  A
C2813      C2818   1.426       .  A
C2814      C2815   1.437       .  A
C2815      C2816   1.426       .  A
C2815      H2820   1.067       .  S
C2816      C2817   1.517       .  A
C2817      C2818   1.437       .  A
C2818      H2819   1.077       .  S
C2821      C2822   1.529       .  A
C2821      C2826   1.423       .  A
C2822      C2823   1.419       .  A
C2823      C2824   1.421       .  A
C2823      H2828   1.067       .  S
C2824      C2825   1.529       .  A
C2825      C2826   1.425       .  A
C2826      H2827   1.077       .  S
C2829      C2830   1.477       .  A
C2829      C2834   1.485       .  A
C2830      C2831   1.482       .  A
C2831      C2832   1.467       .  A
C2831      H2836   1.074       .  S
C2832      C2833   1.451       .  A
C2833      C2834   1.459       .  A
C2834      H2835   1.078   1_565  S
C2837      C2838   1.534       .  S
C2837      C2843   1.532       .  S
C2837      C2841   1.473       .  S
C2837      C3304   1.539       .  S
C2838      H2845   1.076       .  S
C2838      C2839   1.370       .  D
C2839      C2840   1.672       .  S
C2839      C2953   1.612       .  S
C2840      C2844   1.655   1_565  S
C2840      C2842   1.558       .  S
C2840      H2846   1.106       .  S
C2841      H2847   1.093       .  S
C2841      C2842   1.324       .  D
C2842      C3037   1.481       .  S
C2843      H2848   1.041       .  S
C2843      C2844   1.378   1_565  D
C2849      C2850   1.521       .  S
C2849      C2855   1.505       .  S
C2849      C2853   1.486       .  S
C2849      C3316   1.533       .  S
C2850      H2857   1.075       .  S
C2850      C2851   1.382       .  D
C2851      C2852   1.662       .  S
C2852      C2856   1.672       .  S
C2852      C2854   1.563       .  S
C2852      H2858   1.106       .  S
C2853      H2859   1.093       .  S
C2853      C2854   1.312       .  D
C2854      C3028   1.486       .  S
C2855      H2860   1.070       .  S
C2855      C2856   1.347       .  D
C2856      C2962   1.618       .  S
C2861      C2862   1.520       .  S
C2861      C2867   1.545       .  S
C2861      C2865   1.494       .  S
C2861      C3328   1.508       .  S
C2862      H2869   1.078       .  S
C2862      C2863   1.332       .  D
C2863      C2864   1.637       .  S
C2864      C2868   1.662       .  S
C2864      C2866   1.562       .  S
C2864      H2870   1.096       .  S
C2865      H2871   1.097       .  S
C2865      C2866   1.310       .  D
C2866      C3013   1.497       .  S
C2867      H2872   1.078       .  S
C2867      C2868   1.385       .  D
O2873      C2888   1.241       .  A
O2873     Al2881   1.815       .  S
C2874      O2884   1.258       .  A
C2874      C3025   1.487       .  S
O2875     Al2877   1.939   1_455  S
O2876     Al2877   1.839       .  S
Al2877     O2885   1.860       .  S
Al2877     O2887   1.921       .  S
Al2877     O2886   1.781       .  S
C2878      O2891   1.273       .  A
C2878      C3040   1.486       .  S
O2879     Al2881   1.828       .  S
O2880     Al2890   1.876       .  S
Al2881     O2894   1.935       .  S
Al2881     O2891   1.946       .  S
O2882     Al2890   1.930       .  S
O2883      C2892   1.266       .  A
O2883     Al2890   1.931       .  S
O2884     Al2890   1.883       .  S
C2888      C3364   1.475       .  S
C2889      C3016   1.492       .  S
C2892      C3340   1.482       .  S
C2893      C3388   1.505       .  S
C2895      C2896   1.520       .  S
C2895      C2901   1.490       .  S
C2895      C2899   1.484       .  S
C2896      H2903   1.064       .  S
C2896      C2897   1.390       .  D
C2897      C2898   1.693       .  S
C2897      C2965   1.650       .  S
C2898      C2902   1.669       .  S
C2898      C2900   1.571       .  S
C2898      H2904   1.106       .  S
C2899      H2905   1.085       .  S
C2899      C2900   1.314       .  D
C2900      C3001   1.490       .  S
C2901      H2906   1.056       .  S
C2901      C2902   1.352       .  D
C2902      C2972   1.644       .  S
C2907      C2908   1.522       .  S
C2907      C2913   1.543       .  S
C2907      C2911   1.508       .  S
C2908      H2915   1.078       .  S
C2908      C2909   1.379       .  D
C2909      C2910   1.657       .  S
C2909      C2973   1.618       .  S
C2910      C2914   1.641       .  S
C2910      C2912   1.568       .  S
C2910      H2916   1.107       .  S
C2911      H2917   1.091       .  S
C2911      C2912   1.329       .  D
C2912      C2989   1.505       .  S
C2913      H2918   1.062   1_655  S
C2913      C2914   1.361       .  D
C2914      C2956   1.602       .  S
C2919      C2920   1.537       .  S
C2919      C2925   1.518       .  S
C2919      C2923   1.486       .  S
C2919      C3100   1.534       .  S
C2920      H2927   1.072       .  S
C2920      C2921   1.372       .  D
C2921      C2922   1.665       .  S
C2921      C2954   1.600       .  S
C2922      C2926   1.619       .  S
C2922      C2924   1.554       .  S
C2922      H2928   1.097       .  S
C2923      H2929   1.080       .  S
C2923      C2924   1.320       .  D
C2924      C2977   1.474       .  S
C2925      H2930   1.055       .  S
C2925      C2926   1.358       .  D
C2926      C2961   1.620       .  S
O2931      C2946   1.264       .  A
O2931     Al2939   1.940       .  S
C2932      O2942   1.276       .  A
C2932      O2933   1.244       .  A
C2932      C2980   1.500       .  S
O2933     Al2935   1.813       .  S
O2934      C2936   1.272       .  A
O2934     Al2935   1.949       .  S
Al2935     O2943   1.904       .  S
Al2935     O2945   1.847       .  S
Al2935     O2944   1.797       .  S
C2936      O2949   1.274       .  A
C2936      C2992   1.522       .  S
O2937      C2947   1.259       .  A
O2937     Al2939   1.925       .  S
O2938      C2951   1.270       .  A
O2938     Al2948   1.930       .  S
Al2939     O2952   1.928       .  S
Al2939     O2949   1.942       .  S
Al2939     O2944   1.785       .  S
O2940      C2947   1.263       .  A
O2940     Al2948   1.892       .  S
O2941      C2950   1.256       .  A
O2941     Al2948   1.888       .  S
O2942     Al2948   1.983       .  S
O2943      C2950   1.260       .  A
O2944     Al2948   1.777       .  S
O2945      C2946   1.245       .  A
C2946      C3172   1.492       .  S
C2947      C3004   1.496       .  S
C2950      C3145   1.485       .  S
C2951      O2952   1.271       .  A
C2951      C3124   1.505       .  S
C2953      C2954   1.511       .  A
C2953      C2958   1.423       .  A
C2954      C2955   1.431       .  A
C2955      C2956   1.428       .  A
C2955      H2960   1.060       .  S
C2956      C2957   1.504       .  A
C2957      C2958   1.432       .  A
C2958      H2959   1.057       .  S
C2961      C2962   1.521       .  A
C2961      C2966   1.453       .  A
C2962      C2963   1.423       .  A
C2963      C2964   1.436       .  A
C2963      H2968   1.071       .  S
C2964      C2965   1.530       .  A
C2965      C2966   1.442       .  A
C2966      H2967   1.070       .  S
C2969      C2970   1.468       .  A
C2969      C2974   1.494       .  A
C2970      C2971   1.473       .  A
C2971      C2972   1.498       .  A
C2971      H2976   1.071       .  S
C2972      C2973   1.463       .  A
C2973      C2974   1.474       .  A
C2974      H2975   1.078       .  S
C2977      C2978   1.400       .  A
C2977      C2982   1.427       .  A
C2978      C2979   1.397       .  A
C2978      H2983   1.086       .  S
C2979      C2980   1.424       .  A
C2979      C2986   1.446       .  S
C2980      C2981   1.404       .  A
C2981      C2982   1.412       .  A
C2981      H2984   1.084       .  S
C2982      C2985   1.444       .  S
C2985      N2987   1.157       .  T
C2986      N2988   1.157       .  T
C2989      C2990   1.377       .  A
C2989      C2994   1.436       .  A
C2990      C2991   1.403       .  A
C2990      H2995   1.078       .  S
C2991      C2992   1.409       .  A
C2991      C2998   1.402       .  S
C2992      C2993   1.407       .  A
C2993      C2994   1.425       .  A
C2993      H2996   1.083       .  S
C2994      C2997   1.437       .  S
C2997      N2999   1.156       .  T
C2998      N3000   1.145       .  T
C3001      C3002   1.421       .  A
C3001      C3006   1.420       .  A
C3002      C3003   1.409       .  A
C3002      H3007   1.085       .  S
C3003      C3004   1.412       .  A
C3003      C3010   1.443       .  S
C3004      C3005   1.409       .  A
C3005      C3006   1.408       .  A
C3005      H3008   1.084       .  S
C3006      C3009   1.444       .  S
C3009      N3011   1.157       .  T
C3010      N3012   1.157       .  T
C3013      C3014   1.420   1_565  A
C3013      C3018   1.422       .  A
C3014      C3015   1.410   1_545  A
C3015      C3016   1.402       .  A
C3016      C3017   1.406       .  A
C3017      C3018   1.401       .  A
C3021      N3023   1.157       .  T
C3022      N3024   1.157       .  T
C3025      C3026   1.406       .  A
C3025      C3030   1.399       .  A
C3026      C3027   1.407       .  A
C3026      H3031   1.077       .  S
C3027      C3028   1.409       .  A
C3027      C3034   1.444       .  S
C3028      C3029   1.426       .  A
C3029      C3030   1.394       .  A
C3029      H3032   1.087       .  S
C3030      C3033   1.445       .  S
C3033      N3035   1.157       .  T
C3034      N3036   1.157       .  T
C3037      C3038   1.403   1_565  A
C3037      C3042   1.435       .  A
C3038      C3039   1.400       .  A
C3038      H3043   1.087       .  S
C3039      C3040   1.402   1_545  A
C3039      C3046   1.446       .  S
C3040      C3041   1.398       .  A
C3041      C3042   1.411       .  A
C3041      H3044   1.084       .  S
C3042      C3045   1.446       .  S
C3045      N3047   1.157       .  T
C3049      C3050   1.400       .  A
C3049      C3054   1.434       .  A
C3050      C3051   1.396       .  A
C3050      H3055   1.080       .  S
C3051      C3052   1.406       .  A
C3052      C3053   1.394       .  A
C3053      C3054   1.398       .  A
C3053      H3056   1.085   1_655  S
C3054      C3057   1.449   1_655  S
C3058      N3060   1.157       .  T
C3061      C3062   1.421       .  A
C3061      C3066   1.430       .  A
C3062      C3063   1.396       .  A
C3062      H3067   1.086       .  S
C3063      C3064   1.399       .  A
C3063      C3070   1.445       .  S
C3064      C3065   1.399       .  A
C3065      C3066   1.415       .  A
C3065      H3068   1.079       .  S
C3066      C3069   1.449       .  S
C3069      N3071   1.158       .  T
C3070      N3072   1.157   1_655  T
C3073      C3074   1.412       .  A
C3073      C3078   1.423       .  A
C3074      C3075   1.408       .  A
C3074      H3079   1.085       .  S
C3075      C3076   1.403       .  A
C3075      C3082   1.442       .  S
C3076      C3077   1.402       .  A
C3077      C3078   1.407       .  A
C3077      H3080   1.084       .  S
C3078      C3081   1.446       .  S
C3081      N3083   1.157       .  T
C3082      N3084   1.157       .  T
C3085      C3086   1.429       .  A
C3085      C3090   1.391       .  A
C3086      C3087   1.401       .  A
C3087      C3088   1.412       .  A
C3087      C3094   1.445       .  S
C3088      C3089   1.412       .  A
C3089      C3090   1.408       .  A
C3089      H3092   1.065       .  S
C3090      C3093   1.434       .  S
C3093      N3095   1.156       .  T
C3094      N3096   1.157       .  T
C3097      C3098   1.413       .  A
C3097      C3102   1.420       .  A
C3098      C3099   1.400       .  A
C3098      H3103   1.072       .  S
C3099      C3100   1.385       .  A
C3099      C3106   1.431       .  S
C3100      C3101   1.421       .  A
C3101      C3102   1.410       .  A
C3101      H3104   1.078       .  S
C3102      C3105   1.443       .  S
C3105      N3107   1.157       .  T
C3106      N3108   1.154       .  T
C3109      C3110   1.419       .  A
C3109      C3114   1.435       .  A
C3110      C3111   1.397       .  A
C3111      C3112   1.404       .  A
C3111      C3118   1.445       .  S
C3112      C3113   1.389       .  A
C3113      C3114   1.391       .  A
C3113      H3116   1.086       .  S
C3114      C3117   1.443       .  S
C3117      N3119   1.158       .  T
C3118      N3120   1.157       .  T
C3121      C3122   1.415       .  A
C3121      C3126   1.385       .  A
C3122      C3123   1.408       .  A
C3122      H3127   1.083       .  S
C3123      C3124   1.433       .  A
C3123      C3130   1.446       .  S
C3124      C3125   1.428       .  A
C3125      C3126   1.422       .  A
C3125      H3128   1.078       .  S
C3126      C3129   1.429       .  S
C3129      N3131   1.155       .  T
C3130      N3132   1.158       .  T
C3133      C3134   1.377       .  A
C3133      C3138   1.432       .  A
C3134      C3135   1.385       .  A
C3134      H3139   1.086       .  S
C3135      C3136   1.407       .  A
C3135      C3142   1.393       .  S
C3136      C3137   1.400       .  A
C3137      C3138   1.406       .  A
C3137      H3140   1.084       .  S
C3138      C3141   1.446       .  S
C3142      N3144   1.140       .  T
C3145      C3146   1.390       .  A
C3145      C3150   1.406       .  A
C3146      C3147   1.404       .  A
C3146      H3151   1.085       .  S
C3147      C3148   1.467       .  A
C3147      C3154   1.442       .  S
C3148      C3149   1.395       .  A
C3149      C3150   1.397       .  A
C3149      H3152   1.084       .  S
C3150      C3153   1.379       .  S
C3153      N3155   1.135       .  T
C3154      N3156   1.157       .  T
C3157      C3158   1.404       .  A
C3157      C3162   1.413       .  A
C3158      C3159   1.400       .  A
C3158      H3163   1.086       .  S
C3159      C3160   1.437       .  A
C3159      C3166   1.447       .  S
C3160      C3161   1.422       .  A
C3161      C3162   1.418       .  A
C3161      H3164   1.085       .  S
C3162      C3165   1.440       .  S
C3165      N3167   1.157       .  T
C3166      N3168   1.158       .  T
C3169      C3170   1.416       .  A
C3169      C3174   1.439       .  A
C3170      C3171   1.401       .  A
C3170      H3175   1.082       .  S
C3171      C3172   1.422       .  A
C3171      C3178   1.445       .  S
C3172      C3173   1.408       .  A
C3173      C3174   1.414       .  A
C3173      H3176   1.084       .  S
C3174      C3177   1.444       .  S
C3177      N3179   1.157       .  T
C3178      N3180   1.157       .  T
C3181      C3182   1.408       .  A
C3181      C3186   1.427       .  A
C3182      C3183   1.399       .  A
C3182      H3187   1.086       .  S
C3183      C3184   1.409       .  A
C3183      C3190   1.445       .  S
C3184      C3185   1.404       .  A
C3185      C3186   1.407       .  A
C3185      H3188   1.085       .  S
C3186      C3189   1.439       .  S
C3189      N3191   1.155       .  T
C3190      N3192   1.157       .  T
C3193      C3194   1.391       .  A
C3193      C3198   1.404       .  A
C3194      C3195   1.404       .  A
C3194      H3199   1.086       .  S
C3195      C3196   1.460       .  A
C3195      C3202   1.446       .  S
C3196      C3197   1.396       .  A
C3197      C3198   1.394       .  A
C3197      H3200   1.084       .  S
C3198      C3201   1.411       .  S
C3201      N3203   1.147       .  T
C3202      N3204   1.157       .  T
C3205      C3206   1.404       .  A
C3205      C3210   1.415       .  A
C3206      C3207   1.400       .  A
C3206      H3211   1.082       .  S
C3207      C3208   1.435       .  A
C3207      C3214   1.441       .  S
C3208      C3209   1.411       .  A
C3209      C3210   1.401       .  A
C3209      H3212   1.081       .  S
C3210      C3213   1.445       .  S
C3213      N3215   1.157       .  T
C3214      N3216   1.158       .  T
C3217      C3218   1.402       .  A
C3217      C3222   1.409       .  A
C3218      C3219   1.403       .  A
C3218      H3223   1.084       .  S
C3219      C3220   1.426       .  A
C3219      C3226   1.436       .  S
C3220      C3221   1.429       .  A
C3221      C3222   1.406       .  A
C3221      H3224   1.076       .  S
C3222      C3225   1.446       .  S
C3225      N3227   1.158       .  T
C3226      N3228   1.156       .  T
C3229      C3230   1.421       .  A
C3229      C3234   1.387       .  A
C3230      C3231   1.409   1_556  A
C3230      H3235   1.083       .  S
C3231      C3232   1.418       .  A
C3231      C3238   1.444       .  S
C3232      C3233   1.409       .  A
C3233      C3234   1.394   1_554  A
C3233      H3236   1.073   1_655  S
C3234      C3237   1.425   1_655  S
C3237      N3239   1.152       .  T
C3238      N3240   1.157       .  T
C3241      C3242   1.368       .  A
C3241      C3246   1.438       .  A
C3242      C3243   1.383       .  A
C3242      H3247   1.085       .  S
C3243      C3244   1.403       .  A
C3243      C3250   1.381       .  S
C3244      C3245   1.401       .  A
C3245      C3246   1.416       .  A
C3245      H3248   1.083       .  S
C3246      C3249   1.444       .  S
C3249      N3251   1.157       .  T
C3250      N3252   1.136       .  T
C3253      C3254   1.439       .  A
C3253      C3258   1.396       .  A
C3254      C3255   1.417   1_556  A
C3254      H3259   1.076   1_655  S
C3255      C3256   1.412       .  A
C3255      C3262   1.445   1_655  S
C3256      C3257   1.412       .  A
C3257      C3258   1.406   1_554  A
C3257      H3260   1.064       .  S
C3258      C3261   1.431       .  S
C3261      N3263   1.154       .  T
C3265      C3266   1.420       .  A
C3265      C3270   1.435       .  A
C3266      C3267   1.420       .  A
C3266      H3271   1.085       .  S
C3267      C3268   1.417       .  A
C3267      C3274   1.442       .  S
C3268      C3269   1.407       .  A
C3269      C3270   1.402       .  A
C3269      H3272   1.086       .  S
C3270      C3273   1.449       .  S
C3273      N3275   1.157       .  T
C3274      N3276   1.157       .  T
C3277      C3278   1.390       .  A
C3277      C3282   1.412       .  A
C3278      C3279   1.400   1_554  A
C3278      H3283   1.086       .  S
C3279      C3280   1.450       .  A
C3279      C3286   1.444       .  S
C3280      C3281   1.412       .  A
C3281      C3282   1.406   1_556  A
C3281      H3284   1.081       .  S
C3282      C3285   1.443       .  S
C3286      N3288   1.158       .  T
C3289      C3290   1.420       .  A
C3289      C3294   1.423       .  A
C3290      C3291   1.416       .  A
C3290      H3295   1.083       .  S
C3291      C3292   1.413       .  A
C3291      C3298   1.443       .  S
C3292      C3293   1.411       .  A
C3293      C3294   1.401       .  A
C3293      H3296   1.085       .  S
C3294      C3297   1.447       .  S
C3297      N3299   1.157   1_554  T
C3298      N3300   1.158       .  T
C3301      C3302   1.399       .  A
C3301      C3306   1.406       .  A
C3302      C3303   1.391       .  A
C3302      H3307   1.085       .  S
C3303      C3304   1.428       .  A
C3303      C3310   1.437       .  S
C3304      C3305   1.435       .  A
C3305      C3306   1.410       .  A
C3305      H3308   1.080       .  S
C3306      C3309   1.443       .  S
C3309      N3311   1.157       .  T
C3310      N3312   1.156   1_565  T
C3313      C3314   1.395       .  A
C3313      C3318   1.414       .  A
C3314      C3315   1.398       .  A
C3314      H3319   1.080       .  S
C3315      C3316   1.445       .  A
C3315      C3322   1.442       .  S
C3316      C3317   1.420       .  A
C3317      C3318   1.405       .  A
C3317      H3320   1.081       .  S
C3318      C3321   1.444       .  S
C3321      N3323   1.157       .  T
C3322      N3324   1.158       .  T
C3325      C3326   1.388       .  A
C3325      C3330   1.411       .  A
C3326      C3327   1.401       .  A
C3326      H3331   1.085       .  S
C3327      C3328   1.460       .  A
C3327      C3334   1.447   1_565  S
C3328      C3329   1.399       .  A
C3329      C3330   1.384       .  A
C3329      H3332   1.083       .  S
C3330      C3333   1.430       .  S
C3333      N3335   1.154       .  T
C3334      N3336   1.157       .  T
C3337      C3338   1.427       .  A
C3337      C3342   1.380       .  A
C3338      C3339   1.405       .  A
C3338      H3343   1.079       .  S
C3339      C3340   1.415       .  A
C3339      C3346   1.444       .  S
C3340      C3341   1.412       .  A
C3341      C3342   1.393       .  A
C3342      C3345   1.426       .  S
C3346      N3348   1.157       .  T
C3349      C3350   1.399       .  A
C3349      C3354   1.420       .  A
C3350      C3351   1.395       .  A
C3350      H3355   1.086       .  S
C3351      C3352   1.420       .  A
C3351      C3358   1.444       .  S
C3352      C3353   1.399       .  A
C3353      C3354   1.388       .  A
C3353      H3356   1.085       .  S
C3354      C3357   1.447       .  S
C3357      N3359   1.157       .  T
C3358      N3360   1.157       .  T
C3361      C3362   1.407       .  A
C3361      C3366   1.436       .  A
C3362      C3363   1.392       .  A
C3362      H3367   1.079       .  S
C3363      C3364   1.412       .  A
C3363      C3370   1.444       .  S
C3364      C3365   1.392       .  A
C3365      C3366   1.397       .  A
C3365      H3368   1.085   1_565  S
C3366      C3369   1.442   1_565  S
C3369      N3371   1.158       .  T
C3370      N3372   1.157       .  T
C3373      C3374   1.428       .  A
C3373      C3378   1.374       .  A
C3374      C3375   1.422       .  A
C3374      H3379   1.079       .  S
C3375      C3376   1.414       .  A
C3375      C3382   1.441   1_565  S
C3376      C3377   1.410       .  A
C3377      C3378   1.409       .  A
C3377      H3380   1.074       .  S
C3378      C3381   1.419       .  S
C3381      N3383   1.154       .  T
C3382      N3384   1.157       .  T
C3385      C3386   1.434       .  A
C3385      C3390   1.384       .  A
C3386      C3387   1.409       .  A
C3386      H3391   1.076       .  S
C3387      C3388   1.410       .  A
C3387      C3394   1.443       .  S
C3388      C3389   1.419       .  A
C3389      C3390   1.410       .  A
C3390      C3393   1.430   1_565  S
C3393      N3395   1.155       .  T
C3397      C3398   1.403       .  A
C3397      C3402   1.424       .  A
C3398      C3399   1.405       .  A
C3398      H3403   1.084       .  S
C3399      C3400   1.422       .  A
C3399      C3406   1.445       .  S
C3400      C3401   1.399       .  A
C3401      C3402   1.396       .  A
C3401      H3404   1.086       .  S
C3402      C3405   1.446       .  S
C3405      N3407   1.157   1_565  T
C3406      N3408   1.157       .  T
