geometry optimzed in LAMMPS
_audit_creation_date              2020-11-30 
_audit_creation_method            'lammps2cif' 
_symmetry_space_group_name_H-M    'P1' 
_symmetry_Int_Tables_number       1 
_symmetry_cell_setting            triclinic 
loop_ 
_symmetry_equiv_pos_as_xyz 
  x,y,z 
_cell_length_a                    46.31411107418223 
_cell_length_b                    46.192601228793094 
_cell_length_c                    46.273519976516184 
_cell_angle_alpha                 89.9967405710647 
_cell_angle_beta                  89.98324896970887 
_cell_angle_gamma                 90.12890470575931 
loop_ 
_atom_site_label 
_atom_site_type_symbol 
_atom_site_fract_x 
_atom_site_fract_y 
_atom_site_fract_z 
_atom_site_charge 
O1          O  0.04969172  0.53953965  0.51945609    -0.72780
O2          O  0.04856697  0.46070006  0.48103046    -0.73760
O3          O  0.04946593  0.48101098  0.53931079    -0.62380
O4          O  0.04839496  0.51948619  0.46113711    -0.70790
O5          O  0.09632270  0.51759125  0.45995294    -0.70350
O6          O  0.09733444  0.48226794  0.53868165    -0.61600
O7          O  0.09639185  0.46086107  0.48185087    -0.74110
O8          O  0.09752762  0.53881050  0.51719932    -0.72890
Cu9        Cu  0.04721759  0.50019324  0.50019750     1.04560
Cu10       Cu  0.09842878  0.49989169  0.49932239     1.04330
C11         C  0.07419168  0.55123881  0.52482244     0.93420
C12         C  0.07265996  0.44821995  0.47575488     0.92550
C13         C  0.07372139  0.47590435  0.55146415     0.84700
C14         C  0.07232920  0.52441761  0.44829040     0.90970
O15         O  0.46184532  0.93424833  0.53962278    -0.72780
O16         O  0.50125158  0.93460916  0.46123867    -0.73760
O17         O  0.44241414  0.93316310  0.48081056    -0.62380
O18         O  0.52056888  0.93587772  0.51995503    -0.70790
O19         O  0.52010400  0.88783276  0.52212285    -0.70350
O20         O  0.44537947  0.88530584  0.48014246    -0.61600
O21         O  0.50380509  0.88672814  0.46378029    -0.74110
O22         O  0.46199944  0.88626252  0.53822278    -0.72890
Cu23       Cu  0.48146544  0.93633361  0.50036907     1.04560
Cu24       Cu  0.48286404  0.88503130  0.50103972     1.04330
C25         C  0.45537532  0.90979040  0.55096650     0.93420
C26         C  0.50934257  0.91034658  0.45063745     0.92550
C27         C  0.43170768  0.90849408  0.47410815     0.84700
C28         C  0.53221405  0.91201181  0.52765578     0.90970
O29         O  0.86770814  0.53857065  0.48338093    -0.72780
O30         O  0.87023441  0.45904848  0.51659735    -0.73760
O31         O  0.86854179  0.51538814  0.53993429    -0.62380
O32         O  0.86934640  0.48228264  0.46013259    -0.70790
O33         O  0.91729111  0.48101830  0.46090918    -0.70350
O34         O  0.91625499  0.52012495  0.53890887    -0.61600
O35         O  0.91808792  0.46155854  0.51942582    -0.74110
O36         O  0.91544369  0.53973262  0.48060663    -0.72890
Cu37       Cu  0.86736554  0.49877254  0.50001226     1.04560
Cu38       Cu  0.91855540  0.50066016  0.49993595     1.04330
C39         C  0.89094319  0.55169205  0.47625175     0.93420
C40         C  0.89439549  0.44799995  0.52377778     0.92550
C41         C  0.89208901  0.52342864  0.55184782     0.84700
C42         C  0.89332229  0.47593855  0.44814991     0.90970
O43         O  0.50214994  0.46160063  0.06448108    -0.72780
O44         O  0.46338294  0.53966158  0.06667562    -0.73760
O45         O  0.52182996  0.52004954  0.06794838    -0.62380
O46         O  0.44361588  0.48132690  0.06338454    -0.70790
O47         O  0.44254565  0.47942883  0.11138375    -0.70350
O48         O  0.51954877  0.51714087  0.11568297    -0.61600
O49         O  0.46249151  0.53725716  0.11455969    -0.74110
O50         O  0.49986266  0.45955624  0.11242611    -0.72890
Cu51       Cu  0.48278575  0.50071329  0.06382677     1.04560
Cu52       Cu  0.48101748  0.49825877  0.11507383     1.04330
C53         C  0.50715415  0.44848179  0.08827077     0.93420
C54         C  0.45707937  0.55084136  0.09115066     0.92550
C55         C  0.53287380  0.52492417  0.09283878     0.84700
C56         C  0.43097636  0.47427649  0.08692698     0.90970
N57         N  0.18763489  0.39469203  0.09723374    -0.27130
N58         N  0.17456305  0.37442697  0.11257319    -0.34990
C59         C  0.14645529  0.37394115  0.10561840     0.01210
C60         C  0.14128982  0.39527332  0.08515858     0.07240
C61         C  0.16808574  0.40780203  0.08020582    -0.05860
H62         H  0.13121953  0.35868297  0.11462969     0.07910
H63         H  0.17305086  0.42534481  0.06552742     0.09110
Cu64       Cu  0.19477796  0.34855776  0.14298293     0.44170
Cu65       Cu  0.23139595  0.40316331  0.10015818     0.41990
Cu66       Cu  0.27127823  0.35645235  0.14986862     0.43880
N67         N  0.21901470  0.32504890  0.17232382    -0.34510
N68         N  0.24741884  0.32708722  0.17412037    -0.28770
C69         C  0.25691384  0.30842434  0.19431390    -0.04870
C70         C  0.23324913  0.29432149  0.20607820     0.07350
C71         C  0.20957532  0.30547055  0.19168227     0.01140
H72         H  0.27930491  0.30575712  0.20039696     0.08800
H73         H  0.18718527  0.29946108  0.19470807     0.07870
N74         N  0.28985538  0.38880822  0.12477702    -0.35960
N75         N  0.27545851  0.40582562  0.10692369    -0.28140
C76         C  0.29403751  0.42418676  0.09408525    -0.03380
C77         C  0.32154400  0.41850753  0.10435232     0.05230
C78         C  0.31796430  0.39591318  0.12376050     0.03320
H79         H  0.28788000  0.43996762  0.07799105     0.08430
H80         H  0.33455337  0.38545636  0.13644739     0.07260
N81         N  0.08511017  0.40169189  0.70548830    -0.27130
N82         N  0.10569144  0.38728215  0.69186756    -0.34990
C83         C  0.10707239  0.39649370  0.66436115     0.01210
C84         C  0.08615339  0.41735433  0.66043229     0.07240
C85         C  0.07258176  0.42019081  0.68684775    -0.05860
H86         H  0.12240676  0.38881685  0.64848601     0.07910
H87         H  0.05562114  0.43526936  0.69239297     0.09110
Cu88       Cu  0.13178195  0.35625514  0.71095260     0.44170
Cu89       Cu  0.07682745  0.39753303  0.74934030     0.41990
Cu90       Cu  0.12670331  0.35073843  0.78796187     0.43880
N91         N  0.15650125  0.32772155  0.73505928    -0.34510
N92         N  0.15543393  0.32656523  0.76357047    -0.28770
C93         C  0.17474847  0.30703190  0.77300633    -0.04870
C94         C  0.18836327  0.29502550  0.74923615     0.07350
C95         C  0.17617977  0.30858045  0.72551675     0.01140
H96         H  0.17822688  0.30159378  0.79547799     0.08800
H97         H  0.18159183  0.30518996  0.70302569     0.07870
N98         N  0.09473848  0.37508797  0.80772117    -0.35960
N99         N  0.07625654  0.39179577  0.79379114    -0.28140
C100        C  0.05828057  0.40407488  0.81306314    -0.03380
C101        C  0.06598526  0.39484812  0.84049669     0.05230
C102        C  0.08906280  0.37631183  0.83615252     0.03320
H103        H  0.04104174  0.41882294  0.80750058     0.08430
H104        H  0.10054811  0.36395837  0.85229876     0.07260
N105        N  0.87794969  0.40334099  0.29423811    -0.27130
N106        N  0.86096674  0.38542371  0.30872485    -0.34990
C107        C  0.86164644  0.39258787  0.33690523     0.01210
C108        C  0.87967295  0.41627171  0.34015157     0.07240
C109        C  0.88947236  0.42268447  0.31269601    -0.05860
H110        H  0.84924801  0.38193185  0.35364587     0.07910
H111        H  0.90391839  0.44007476  0.30657930     0.09110
Cu112      Cu  0.83577077  0.35367210  0.28910443     0.44170
Cu113      Cu  0.88476054  0.40059782  0.25009224     0.41990
Cu114      Cu  0.83599186  0.35365997  0.21068206     0.43880
N115        N  0.80950810  0.32702615  0.26406802    -0.34510
N116        N  0.80875314  0.32787406  0.23550887    -0.28770
C117        C  0.78884060  0.30885987  0.22599816    -0.04870
C118        C  0.77664718  0.29514586  0.24968123     0.07350
C119        C  0.79034349  0.30719500  0.27344706     0.01140
H120        H  0.78407257  0.30486286  0.20346072     0.08800
H121        H  0.78638744  0.30223202  0.29595349     0.07870
N122        N  0.86856188  0.37786566  0.19129845    -0.35960
N123        N  0.88715568  0.39398131  0.20589666    -0.28140
C124        C  0.90676577  0.40503133  0.18746515    -0.03380
C125        C  0.89988610  0.39575920  0.15992758     0.05230
C126        C  0.87554751  0.37866562  0.16308676     0.03320
H127        H  0.92456482  0.41891953  0.19363856     0.08430
H128        H  0.86425390  0.36700458  0.14623862     0.07260
O129        O  0.00146032  0.43590758  0.96082963    -0.72780
O130        O  0.96279438  0.43528399  0.03891301    -0.73760
O131        O  0.02140560  0.43699330  0.01923353    -0.62380
O132        O  0.94321384  0.43407998  0.98061618    -0.70790
O133        O  0.94595282  0.38610459  0.98071669    -0.70350
O134        O  0.02190603  0.38887347  0.02029477    -0.61600
O135        O  0.96458374  0.38720407  0.03906464    -0.74110
O136        O  0.00372634  0.38785392  0.96218843    -0.72890
Cu137      Cu  0.98217536  0.43736802  0.99988880     1.04560
Cu138      Cu  0.98405445  0.38592437  0.00055337     1.04330
C139        C  0.00869440  0.41181257  0.94939526     0.93420
C140        C  0.95773412  0.41101337  0.05121085     0.92550
C141        C  0.03360143  0.41316063  0.02614860     0.84700
C142        C  0.93261020  0.40933260  0.97415410     0.90970
N143        N  0.68838765  0.59658994  0.10537269    -0.27130
N144        N  0.67477882  0.61526497  0.12216112    -0.34990
C145        C  0.64649073  0.60895387  0.12217436     0.01210
C146        C  0.64192586  0.58525678  0.10442694     0.07240
C147        C  0.66901913  0.57800358  0.09406705    -0.05860
H148        H  0.63050422  0.62039615  0.13480110     0.07910
H149        H  0.67453193  0.55974480  0.08053597     0.09110
Cu150      Cu  0.69484800  0.64725400  0.14634064     0.44170
Cu151      Cu  0.73279361  0.59604691  0.10040662     0.41990
Cu152      Cu  0.77184708  0.64944619  0.14379841     0.43880
N153        N  0.71919409  0.67516421  0.17158187    -0.34510
N154        N  0.74771881  0.67523711  0.17154839    -0.28770
C155        C  0.75716517  0.69443816  0.19131536    -0.04870
C156        C  0.73337956  0.70732148  0.20413091     0.07350
C157        C  0.70967964  0.69460119  0.19099858     0.01140
H158        H  0.77966332  0.69897203  0.19572999     0.08800
H159        H  0.68716200  0.69868046  0.19566708     0.07870
N160        N  0.79090453  0.62234304  0.11343353    -0.35960
N161        N  0.77699907  0.60235721  0.09835622    -0.28140
C162        C  0.79565718  0.58932821  0.08024738    -0.03380
C163        C  0.82243472  0.60198917  0.08391468     0.05230
C164        C  0.81865066  0.62284535  0.10498929     0.03320
H165        H  0.78980496  0.57302773  0.06450246     0.08430
H166        H  0.83473105  0.63782695  0.11305149     0.07260
N167        N  0.87563813  0.59473083  0.70622156    -0.27130
N168        N  0.86034715  0.61388037  0.69146280    -0.34990
C169        C  0.86200097  0.60743069  0.66315335     0.01210
C170        C  0.87895290  0.58305542  0.66006155     0.07240
C171        C  0.88705504  0.57540788  0.68772723    -0.05860
H172        H  0.85079886  0.61896775  0.64619307     0.07910
H173        H  0.90006262  0.55702464  0.69399347     0.09110
Cu174      Cu  0.83556685  0.64639989  0.71022673     0.44170
Cu175      Cu  0.88065775  0.59537887  0.75077465     0.41990
Cu176      Cu  0.83568845  0.64722415  0.78772769     0.43880
N177        N  0.80927146  0.67355665  0.73457730    -0.34510
N178        N  0.80854089  0.67285568  0.76311692    -0.28770
C179        C  0.78871140  0.69182333  0.77263630    -0.04870
C180        C  0.77650840  0.70540730  0.74895532     0.07350
C181        C  0.79013585  0.69332816  0.72515928     0.01140
H182        H  0.78400376  0.69586573  0.79517796     0.08800
H183        H  0.78612576  0.69820866  0.70265076     0.07870
N184        N  0.86721991  0.62283048  0.80797208    -0.35960
N185        N  0.88366701  0.60361180  0.79473918    -0.28140
C186        C  0.90280950  0.59285316  0.81382882    -0.03380
C187        C  0.89838343  0.60629985  0.84022542     0.05230
C188        C  0.87549532  0.62497446  0.83567786     0.03320
H189        H  0.91944941  0.57731295  0.80858474     0.08430
H190        H  0.86565993  0.63936595  0.85123767     0.07260
N191        N  0.08816835  0.59612464  0.29403758    -0.27130
N192        N  0.10450805  0.61457079  0.30857930    -0.34990
C193        C  0.10383793  0.60744651  0.33676203     0.01210
C194        C  0.08660518  0.58315310  0.33993870     0.07240
C195        C  0.07708429  0.57649736  0.31244156    -0.05860
H196        H  0.11570377  0.61858336  0.35356985     0.07910
H197        H  0.06301137  0.55882974  0.30625941     0.09110
Cu198      Cu  0.12884185  0.64704573  0.28908661     0.44170
Cu199      Cu  0.08142512  0.59850079  0.24995346     0.41990
Cu200      Cu  0.12829985  0.64729324  0.21070480     0.43880
N201        N  0.15465944  0.67411459  0.26406180    -0.34510
N202        N  0.15532997  0.67332899  0.23549821    -0.28770
C203        C  0.17518484  0.69239325  0.22596413    -0.04870
C204        C  0.18740607  0.70608040  0.24963594     0.07350
C205        C  0.17379383  0.69398178  0.27342336     0.01140
H206        H  0.17997238  0.69637098  0.20342382     0.08800
H207        H  0.17787467  0.69885251  0.29592521     0.07870
N208        N  0.09663005  0.62193468  0.19129007    -0.35960
N209        N  0.07883958  0.60489354  0.20582871    -0.28140
C210        C  0.05988273  0.59282813  0.18737176    -0.03380
C211        C  0.06637160  0.60234054  0.15980380     0.05230
C212        C  0.08971800  0.62083204  0.16308888     0.03320
H213        H  0.04279731  0.57806133  0.19355059     0.08430
H214        H  0.10038422  0.63322749  0.14635304     0.07260
O215        O  0.00109801  0.56382305  0.03897966    -0.72780
O216        O  0.96446603  0.56793425  0.95987254    -0.73760
O217        O  0.02246341  0.56685560  0.98125986    -0.62380
O218        O  0.94286115  0.56523541  0.01784487    -0.70790
O219        O  0.94372570  0.61317874  0.01905021    -0.70350
O220        O  0.02208956  0.61462103  0.98496066    -0.61600
O221        O  0.96564102  0.61576702  0.96267529    -0.74110
O222        O  0.00008935  0.61185808  0.04146794    -0.72890
Cu223      Cu  0.98269505  0.56413687  0.99941873     1.04560
Cu224      Cu  0.98289729  0.61536685  0.00212284     1.04330
C225        C  0.00639374  0.58737877  0.05248154     0.93420
C226        C  0.95924877  0.59274491  0.94877706     0.92550
C227        C  0.03486692  0.59137899  0.97751326     0.84700
C228        C  0.93069737  0.58933979  0.02398468     0.90970
N229        N  0.68728395  0.40004226  0.89833292    -0.27130
N230        N  0.67391531  0.38383840  0.87891681    -0.34990
C231        C  0.64622459  0.39210642  0.87719366     0.01210
C232        C  0.64183889  0.41465656  0.89635547     0.07240
C233        C  0.66827761  0.41896309  0.90963423    -0.05860
H234        H  0.63058136  0.38263577  0.86262686     0.07910
H235        H  0.67364204  0.43549153  0.92531569     0.09110
Cu236      Cu  0.69353633  0.35267240  0.85342400     0.44170
Cu237      Cu  0.73128983  0.39759177  0.90620168     0.41990
Cu238      Cu  0.77016825  0.35276013  0.85408780     0.43880
N239        N  0.71783862  0.32584394  0.82710340    -0.34510
N240        N  0.74633054  0.32672716  0.82654122    -0.28770
C241        C  0.75599931  0.30784066  0.80666745    -0.04870
C242        C  0.73239402  0.29418882  0.79429741     0.07350
C243        C  0.70854004  0.30610572  0.80784903     0.01140
H244        H  0.77854886  0.30395405  0.80199053     0.08800
H245        H  0.68607496  0.30117870  0.80368694     0.07870
N246        N  0.78962728  0.37691854  0.88638865    -0.35960
N247        N  0.77577253  0.39252567  0.90584559    -0.28140
C248        C  0.79506354  0.40372616  0.92452845    -0.03380
C249        C  0.82256633  0.39484559  0.91639628     0.05230
C250        C  0.81799697  0.37790755  0.89201973     0.03320
H251        H  0.78907418  0.41658527  0.94305568     0.08430
H252        H  0.83397929  0.36666180  0.87926116     0.07260
N253        N  0.18785723  0.60252149  0.90138170    -0.27130
N254        N  0.17410642  0.62214226  0.88581944    -0.34990
C255        C  0.14629436  0.62272164  0.89399517     0.01210
C256        C  0.14228091  0.60214832  0.91531785     0.07240
C257        C  0.16904118  0.58971732  0.91952556    -0.05860
H258        H  0.13034200  0.63760987  0.88563915     0.07910
H259        H  0.17478591  0.57385441  0.93572427     0.09110
Cu260      Cu  0.19374479  0.64846795  0.85523964     0.44170
Cu261      Cu  0.23205108  0.59678847  0.89977500     0.41990
Cu262      Cu  0.27111671  0.64416632  0.85025091     0.43880
N263        N  0.21794163  0.67341285  0.82686030    -0.34510
N264        N  0.24644928  0.67265736  0.82572698    -0.28770
C265        C  0.25567006  0.69226035  0.80624391    -0.04870
C266        C  0.23176937  0.70569222  0.79425754     0.07350
C267        C  0.20822630  0.69311214  0.80779883     0.01140
H268        H  0.27808949  0.69614060  0.80089629     0.08800
H269        H  0.18570362  0.69832567  0.80450463     0.07870
N270        N  0.29054010  0.61312121  0.87638206    -0.35960
N271        N  0.27639157  0.59643659  0.89485030    -0.28140
C272        C  0.29513723  0.57847372  0.90789270    -0.03380
C273        C  0.32230311  0.58403692  0.89698427     0.05230
C274        C  0.31863742  0.60588228  0.87690634     0.03320
H275        H  0.28919299  0.56167706  0.92307942     0.08430
H276        H  0.33505010  0.61524229  0.86310915     0.07260
O277        O  0.52179952  0.48115378  0.93346014    -0.72780
O278        O  0.44285919  0.51909205  0.93436378    -0.73760
O279        O  0.46324638  0.46085654  0.93425817    -0.62380
O280        O  0.50112894  0.53936507  0.93415846    -0.70790
O281        O  0.49976429  0.53948389  0.88613746    -0.70350
O282        O  0.46438430  0.46057242  0.88624710    -0.61600
O283        O  0.44281475  0.51758891  0.88648331    -0.74110
O284        O  0.52078524  0.48261201  0.88563974    -0.72890
Cu285      Cu  0.48227062  0.50011773  0.93587033     1.04560
Cu286      Cu  0.48188773  0.50010715  0.88458053     1.04330
C287        C  0.53373450  0.47597454  0.90902459     0.93420
C288        C  0.43036255  0.52409046  0.91020105     0.92550
C289        C  0.45812140  0.44834807  0.91016856     0.84700
C290        C  0.50642071  0.55162119  0.90999141     0.90970
N291        N  0.57947220  0.29457806  0.10567819    -0.27130
N292        N  0.59689441  0.30907795  0.12308308    -0.34990
C293        C  0.58956327  0.33722873  0.12249198     0.01210
C294        C  0.56621256  0.34049619  0.10407250     0.07240
C295        C  0.56041919  0.31297590  0.09379395    -0.05860
H296        H  0.60002918  0.35398180  0.13506022     0.07910
H297        H  0.54383127  0.30673720  0.07855701     0.09110
Cu298      Cu  0.62872067  0.28948077  0.14795653     0.44170
Cu299      Cu  0.58236714  0.25052658  0.09882764     0.41990
Cu300      Cu  0.62984823  0.21074724  0.14654930     0.43880
N301        N  0.65608737  0.26443773  0.17328314    -0.34510
N302        N  0.65570016  0.23580274  0.17366122    -0.28770
C303        C  0.67502907  0.22639600  0.19324429    -0.04870
C304        C  0.68846518  0.25022645  0.20556689     0.07350
C305        C  0.67593204  0.27396090  0.19230496     0.01140
H306        H  0.67933824  0.20384315  0.19779692     0.08800
H307        H  0.68048534  0.29654309  0.19656248     0.07870
N308        N  0.60483540  0.19149771  0.11441420    -0.35960
N309        N  0.58841806  0.20633912  0.09634711    -0.28140
C310        C  0.57671947  0.18814965  0.07690560    -0.03380
C311        C  0.58586733  0.16048929  0.08331134     0.05230
C312        C  0.60362905  0.16329581  0.10717677     0.03320
H313        H  0.56264253  0.19460786  0.05941087     0.08430
H314        H  0.61549780  0.14624837  0.11789864     0.07260
N315        N  0.57513933  0.70745609  0.88972558    -0.27130
N316        N  0.59374139  0.69280539  0.87377588    -0.34990
C317        C  0.58722923  0.66448969  0.87535916     0.01210
C318        C  0.56332612  0.66106603  0.89310159     0.07240
C319        C  0.55635539  0.68886346  0.90189334    -0.05860
H320        H  0.59878397  0.64767992  0.86394185     0.07910
H321        H  0.53921747  0.69527991  0.91638178     0.09110
Cu322      Cu  0.62683277  0.71162639  0.84988581     0.44170
Cu323      Cu  0.57600597  0.75195983  0.89468920     0.41990
Cu324      Cu  0.63242092  0.78901718  0.85493966     0.43880
N325        N  0.65603003  0.73584396  0.82576150    -0.34510
N326        N  0.65724294  0.76441629  0.82678805    -0.28770
C327        C  0.67689331  0.77383229  0.80750219    -0.04870
C328        C  0.68892797  0.75000661  0.79393602     0.07350
C329        C  0.67524808  0.72627256  0.80615165     0.01140
H330        H  0.68228515  0.79634671  0.80390081     0.08800
H331        H  0.67850933  0.70374248  0.80068942     0.07870
N332        N  0.60569623  0.80897037  0.88495965    -0.35960
N333        N  0.58433916  0.79578581  0.89866979    -0.28140
C334        C  0.57162127  0.81466376  0.91679724    -0.03380
C335        C  0.58591973  0.84086543  0.91456372     0.05230
C336        C  0.60745601  0.83643240  0.89434287     0.03320
H337        H  0.55432208  0.80926801  0.93157519     0.08430
H338        H  0.62358881  0.85190475  0.88736609     0.07260
N339        N  0.58702019  0.90333580  0.20588248    -0.27130
N340        N  0.60663512  0.88789485  0.19206480    -0.34990
C341        C  0.60700446  0.89590725  0.16420385     0.01210
C342        C  0.58659458  0.91744402  0.16008719     0.07240
C343        C  0.57429916  0.92151245  0.18711602    -0.05860
H344        H  0.62148377  0.88689859  0.14823895     0.07910
H345        H  0.55716889  0.93624610  0.19291897     0.09110
Cu346      Cu  0.63253442  0.85670454  0.21105010     0.44170
Cu347      Cu  0.57908116  0.89989816  0.24972700     0.41990
Cu348      Cu  0.62924446  0.85308744  0.28795338     0.43880
N349        N  0.65731760  0.82817079  0.23501486    -0.34510
N350        N  0.65688430  0.82759387  0.26355171    -0.28770
C351        C  0.67600525  0.80782149  0.27291221    -0.04870
C352        C  0.68887017  0.79510240  0.24906149     0.07350
C353        C  0.67641263  0.80849083  0.22538403     0.01140
H354        H  0.67992116  0.80277985  0.29540286     0.08800
H355        H  0.68128737  0.80465819  0.20284124     0.07870
N356        N  0.59748032  0.87770233  0.30781416    -0.35960
N357        N  0.57869887  0.89413546  0.29404233    -0.28140
C358        C  0.56031996  0.90576526  0.31332560    -0.03380
C359        C  0.56793490  0.89633516  0.34081974     0.05230
C360        C  0.59170695  0.87858019  0.33618981     0.03320
H361        H  0.54240851  0.91940341  0.30730917     0.08430
H362        H  0.60400850  0.86677020  0.35212147     0.07260
O363        O  0.54707839  0.03954951  0.01861693    -0.72780
O364        O  0.54985414  0.96039318  0.98123235    -0.73760
O365        O  0.54763817  0.98152356  0.03911518    -0.62380
O366        O  0.54902870  0.01875093  0.96037665    -0.70790
O367        O  0.59687950  0.01874728  0.96177094    -0.70350
O368        O  0.59560947  0.98336096  0.03999839    -0.61600
O369        O  0.59757029  0.96209923  0.98347821    -0.74110
O370        O  0.59504767  0.04069767  0.01832068    -0.72890
Cu371      Cu  0.54659177  0.00006158  0.99977843     1.04560
Cu372      Cu  0.59781988  0.00132540  0.00096938     1.04330
C373        C  0.57087851  0.05248682  0.02418512     0.93420
C374        C  0.57447319  0.94864322  0.97672221     0.92550
C375        C  0.57164283  0.97629298  0.05162048     0.84700
C376        C  0.57337644  0.02438970  0.94856714     0.90970
N377        N  0.37511918  0.79354290  0.09527807    -0.27130
N378        N  0.35878863  0.80812354  0.11365703    -0.34990
C379        C  0.35997880  0.83643016  0.10693038     0.01210
C380        C  0.37791562  0.83969132  0.08330113     0.07240
C381        C  0.38700204  0.81214321  0.07629734    -0.05860
H382        H  0.34801765  0.85326253  0.11789120     0.07910
H383        H  0.40084870  0.80600563  0.05849948     0.09110
Cu384      Cu  0.33409618  0.78885247  0.14589470     0.44170
Cu385      Cu  0.38037658  0.74906952  0.09652336     0.41990
Cu386      Cu  0.33804467  0.71102122  0.15043861     0.43880
N387        N  0.30885428  0.76427400  0.17382478    -0.34510
N388        N  0.30948105  0.73567447  0.17465282    -0.28770
C389        C  0.28966228  0.72623009  0.19375444    -0.04870
C390        C  0.27615735  0.75005923  0.20581429     0.07350
C391        C  0.28894847  0.77381390  0.19272324     0.01140
H392        H  0.28577429  0.70370302  0.19887611     0.08800
H393        H  0.28380738  0.79637052  0.19627860     0.07870
N394        N  0.36905083  0.69143792  0.12465056    -0.35960
N395        N  0.38397395  0.70512157  0.10443207    -0.28140
C396        C  0.40232321  0.68638370  0.09187994    -0.03380
C397        C  0.39881600  0.65977832  0.10500792     0.05230
C398        C  0.37774511  0.66371834  0.12574663     0.03320
H399        H  0.41769074  0.69195725  0.07515796     0.08430
H400        H  0.36958053  0.64771018  0.14075373     0.07260
N401        N  0.38839156  0.29331497  0.89168838    -0.27130
N402        N  0.36895497  0.30820601  0.87693380    -0.34990
C403        C  0.37530274  0.33655726  0.87888940     0.01210
C404        C  0.39997576  0.33959358  0.89542356     0.07240
C405        C  0.40785655  0.31178365  0.90298781    -0.05860
H406        H  0.36333819  0.35362660  0.86831085     0.07910
H407        H  0.42623534  0.30544310  0.91593324     0.09110
Cu408      Cu  0.33573857  0.28978670  0.85285628     0.44170
Cu409      Cu  0.38731035  0.24874482  0.89698687     0.41990
Cu410      Cu  0.33116496  0.21269701  0.85631318     0.43880
N411        N  0.30766284  0.26571329  0.82726055    -0.34510
N412        N  0.30691014  0.23712678  0.82781048    -0.28770
C413        C  0.28803230  0.22761501  0.80785229    -0.04870
C414        C  0.27600547  0.25139837  0.79428052     0.07350
C415        C  0.28888599  0.27522123  0.80720790     0.01140
H416        H  0.28306820  0.20506420  0.80388944     0.08800
H417        H  0.28529512  0.29776847  0.80203358     0.07870
N418        N  0.35720317  0.19219544  0.88630072    -0.35960
N419        N  0.37816331  0.20496024  0.90088150    -0.28140
C420        C  0.39081314  0.18530417  0.91821594    -0.03380
C421        C  0.37721844  0.15877085  0.91423817     0.05230
C422        C  0.35579185  0.16425151  0.89402431     0.03320
H423        H  0.40862558  0.19004085  0.93258081     0.08430
H424        H  0.33972502  0.14941222  0.88581503     0.07260
N425        N  0.38164270  0.89915291  0.79576415    -0.27130
N426        N  0.36179574  0.88353848  0.80923142    -0.34990
C427        C  0.36044863  0.89189415  0.83694960     0.01210
C428        C  0.38051337  0.91364364  0.84133861     0.07240
C429        C  0.39367032  0.91768790  0.81477395    -0.05860
H430        H  0.34528768  0.88334107  0.85258207     0.07910
H431        H  0.40950105  0.93402020  0.80922366     0.09110
Cu432      Cu  0.33506060  0.85322982  0.78986596     0.44170
Cu433      Cu  0.38864069  0.89724667  0.75152334     0.41990
Cu434      Cu  0.33354203  0.85506770  0.71359272     0.43880
N435        N  0.30791147  0.82692029  0.76586901    -0.34510
N436        N  0.30654475  0.82847056  0.73742189    -0.28770
C437        C  0.28658181  0.80960401  0.72782087    -0.04870
C438        C  0.27498306  0.79525939  0.75142916     0.07350
C439        C  0.28908538  0.80677533  0.77521656     0.01140
H440        H  0.28138891  0.80614459  0.70528902     0.08800
H441        H  0.28565110  0.80123931  0.79767535     0.07870
N442        N  0.36602157  0.87845181  0.69352984    -0.35960
N443        N  0.38656519  0.89313852  0.70692573    -0.28140
C444        C  0.40508165  0.90371664  0.68708352    -0.03380
C445        C  0.39584205  0.89500912  0.65993042     0.05230
C446        C  0.37082524  0.87932867  0.66498260     0.03320
H447        H  0.42436219  0.91596609  0.69215039     0.08430
H448        H  0.35706890  0.86892326  0.64922775     0.07260
O449        O  0.41498653  0.98080121  0.96091452    -0.72780
O450        O  0.41840420  0.01874241  0.03957347    -0.73760
O451        O  0.41630505  0.96055871  0.01948599    -0.62380
O452        O  0.41723913  0.03920222  0.98140421    -0.70790
O453        O  0.36925119  0.03924353  0.98201540    -0.70350
O454        O  0.36838987  0.96209811  0.02046799    -0.61600
O455        O  0.37042559  0.02032263  0.03975823    -0.74110
O456        O  0.36726926  0.98181595  0.96323660    -0.72890
Cu457      Cu  0.41853921  0.99976505  0.00032476     1.04560
Cu458      Cu  0.36728388  0.00089997  0.00152141     1.04330
C459        C  0.39030328  0.97532744  0.94965658     0.93420
C460        C  0.39464585  0.02584768  0.05165754     0.92550
C461        C  0.39201087  0.94897407  0.02581207     0.84700
C462        C  0.39316009  0.05124891  0.97536114     0.90970
N463        N  0.68875373  0.89397533  0.59569323    -0.27130
N464        N  0.67501905  0.87529824  0.61235747    -0.34990
C465        C  0.64679434  0.87593733  0.60590796     0.01210
C466        C  0.64219030  0.89622441  0.58416808     0.07240
C467        C  0.66957488  0.90722353  0.57836663    -0.05860
H468        H  0.63096396  0.86220957  0.61627446     0.07910
H469        H  0.67555835  0.92371961  0.56297062     0.09110
Cu470      Cu  0.69482208  0.84982427  0.64347141     0.44170
Cu471      Cu  0.73299569  0.90003694  0.59692362     0.41990
Cu472      Cu  0.77205776  0.85563261  0.64892716     0.43880
N473        N  0.71912761  0.82595447  0.67257505    -0.34510
N474        N  0.74761414  0.82724522  0.67384821    -0.28770
C475        C  0.75699289  0.80818210  0.69372772    -0.04870
C476        C  0.73321298  0.79456623  0.70583695     0.07350
C477        C  0.70956930  0.80645446  0.69196950     0.01140
H478        H  0.77943214  0.80476415  0.69922356     0.08800
H479        H  0.68710842  0.80085547  0.69523835     0.07870
N480        N  0.79131138  0.88638657  0.62229429    -0.35960
N481        N  0.77720240  0.90204266  0.60297922    -0.28140
C482        C  0.79583166  0.92012663  0.58980455    -0.03380
C483        C  0.82287020  0.91562216  0.60143613     0.05230
C484        C  0.81924878  0.89436576  0.62213467     0.03320
H485        H  0.78989403  0.93617257  0.57385818     0.08430
H486        H  0.83557207  0.88583668  0.63650545     0.07260
N487        N  0.87216202  0.29278898  0.59195417    -0.27130
N488        N  0.85817482  0.30793166  0.61175686    -0.34990
C489        C  0.86097225  0.33626630  0.60561212     0.01210
C490        C  0.87722740  0.33902045  0.58063326     0.07240
C491        C  0.88396495  0.31101385  0.57260931    -0.05860
H492        H  0.85124355  0.35356038  0.61798742     0.07910
H493        H  0.89678001  0.30429324  0.55426431     0.09110
Cu494      Cu  0.83449720  0.28957901  0.64536813     0.44170
Cu495      Cu  0.87583213  0.24817880  0.59216523     0.41990
Cu496      Cu  0.83763453  0.21187567  0.64944121     0.43880
N497        N  0.80950703  0.26520405  0.67381094    -0.34510
N498        N  0.80992228  0.23659822  0.67436277    -0.28770
C499        C  0.79026676  0.22706914  0.69355041    -0.04870
C500        C  0.77702526  0.25082465  0.70598274     0.07350
C501        C  0.78984554  0.27466999  0.69303494     0.01140
H502        H  0.78623841  0.20450366  0.69839114     0.08800
H503        H  0.78480315  0.29720974  0.69682864     0.07870
N504        N  0.86723514  0.19164272  0.62271486    -0.35960
N505        N  0.88047991  0.20455307  0.60092463    -0.28140
C506        C  0.89867664  0.18566699  0.58835676    -0.03380
C507        C  0.89692790  0.15975438  0.60322711     0.05230
C508        C  0.87691624  0.16436624  0.62490715     0.03320
H509        H  0.91317010  0.19089822  0.57076794     0.08430
H510        H  0.87027361  0.14915918  0.64142013     0.07260
N511        N  0.08554362  0.70609168  0.59938663    -0.27130
N512        N  0.10301695  0.69239409  0.61724682    -0.34990
C513        C  0.10349885  0.66424061  0.61020995     0.01210
C514        C  0.08555967  0.65980480  0.58655327     0.07240
C515        C  0.07455364  0.68703612  0.58032640    -0.05860
H516        H  0.11647856  0.64834230  0.62135184     0.07910
H517        H  0.06056510  0.69304591  0.56265328     0.09110
Cu518      Cu  0.12762932  0.71275257  0.64865952     0.44170
Cu519      Cu  0.07890913  0.75022469  0.60122073     0.41990
Cu520      Cu  0.12795246  0.79083373  0.64803278     0.43880
N521        N  0.15365714  0.73755519  0.67541224    -0.34510
N522        N  0.15468449  0.76614218  0.67450782    -0.28770
C523        C  0.17454397  0.77549471  0.69362123    -0.04870
C524        C  0.18636806  0.75162907  0.70740271     0.07350
C525        C  0.17253632  0.72796933  0.69528939     0.01140
H526        H  0.17965602  0.79802416  0.69750603     0.08800
H527        H  0.17631126  0.70537677  0.70011740     0.07870
N528        N  0.09582569  0.80953890  0.62268861    -0.35960
N529        N  0.07741136  0.79455235  0.60671201    -0.28140
C530        C  0.05815043  0.81271693  0.59482547    -0.03380
C531        C  0.06493353  0.84051937  0.60343225     0.05230
C532        C  0.08897486  0.83778234  0.62096856     0.03320
H533        H  0.04059315  0.80613107  0.58086359     0.08430
H534        H  0.10008011  0.85494839  0.63238206     0.07260
O535        O  0.96390379  0.04061300  0.56750509    -0.72780
O536        O  0.00134509  0.96181772  0.56406885    -0.73760
O537        O  0.94289419  0.98221666  0.56528564    -0.62380
O538        O  0.02202153  0.02000835  0.56646711    -0.70790
O539        O  0.02141529  0.01698029  0.61431913    -0.70350
O540        O  0.94338897  0.98162954  0.61320425    -0.61600
O541        O  0.99997341  0.95974172  0.61204037    -0.74110
O542        O  0.96500014  0.03822676  0.61527367    -0.72890
Cu543      Cu  0.98252474  0.00117090  0.56399931     1.04560
Cu544      Cu  0.98248129  0.99900378  0.61522236     1.04330
C545        C  0.95881054  0.05198854  0.59220733     0.93420
C546        C  0.00645715  0.94850984  0.58772830     0.92550
C547        C  0.93055183  0.97646400  0.58939336     0.84700
C548        C  0.03381125  0.02489490  0.59100016     0.90970
N549        N  0.58622744  0.09863672  0.79495650    -0.27130
N550        N  0.60712522  0.11290295  0.80830519    -0.34990
C551        C  0.60849958  0.10385247  0.83585137     0.01210
C552        C  0.58720323  0.08330111  0.84002864     0.07240
C553        C  0.57341987  0.08049526  0.81376572    -0.05860
H554        H  0.62406773  0.11141369  0.85157801     0.07910
H555        H  0.55621927  0.06555549  0.80838596     0.09110
Cu556      Cu  0.63338606  0.14364280  0.78876111     0.44170
Cu557      Cu  0.57783541  0.10227896  0.75132463     0.41990
Cu558      Cu  0.62479728  0.15190928  0.71232043     0.43880
N559        N  0.65755425  0.17259550  0.76440943    -0.34510
N560        N  0.65520381  0.17481403  0.73603648    -0.28770
C561        C  0.67434916  0.19455052  0.72642033    -0.04870
C562        C  0.68912774  0.20560815  0.74997124     0.07350
C563        C  0.67784689  0.19127311  0.77371351     0.01140
H564        H  0.67677581  0.20093424  0.70405325     0.08800
H565        H  0.68413166  0.19399293  0.79606828     0.07870
N566        N  0.59256857  0.12717699  0.69327584    -0.35960
N567        N  0.57578853  0.10877059  0.70725832    -0.28140
C568        C  0.55811212  0.09558585  0.68830634    -0.03380
C569        C  0.56381977  0.10636722  0.66086997     0.05230
C570        C  0.58581201  0.12645302  0.66511733     0.03320
H571        H  0.54277980  0.07902274  0.69435361     0.08430
H572        H  0.59629164  0.13980109  0.64903400     0.07260
N573        N  0.38263308  0.10220380  0.29499151    -0.27130
N574        N  0.36751115  0.12235993  0.30848256    -0.34990
C575        C  0.37615429  0.12375219  0.33611725     0.01210
C576        C  0.39743970  0.10327864  0.34036710     0.07240
C577        C  0.40102779  0.08993379  0.31387231    -0.05860
H578        H  0.36800078  0.13904466  0.35182258     0.07910
H579        H  0.41687575  0.07369036  0.30831262     0.09110
Cu580      Cu  0.33680394  0.14856873  0.28919300     0.44170
Cu581      Cu  0.37999482  0.09470320  0.25097135     0.41990
Cu582      Cu  0.33049573  0.14264517  0.21284784     0.43880
N583        N  0.30866444  0.17377723  0.26524178    -0.34510
N584        N  0.30713373  0.17230860  0.23678175    -0.28770
C585        C  0.28802458  0.19199944  0.22725659    -0.04870
C586        C  0.27668470  0.20627357  0.25096028     0.07350
C587        C  0.29017777  0.19409271  0.27471039     0.01140
H588        H  0.28236028  0.19523454  0.20480740     0.08800
H589        H  0.28711077  0.19985169  0.29716372     0.07870
N590        N  0.35585048  0.11156766  0.19307974    -0.35960
N591        N  0.37415350  0.09438890  0.20662161    -0.28140
C592        C  0.38743175  0.07747126  0.18706273    -0.03380
C593        C  0.37701166  0.08433613  0.15979112     0.05230
C594        C  0.35675773  0.10587955  0.16468375     0.03320
H595        H  0.40355314  0.06144131  0.19240890     0.08430
H596        H  0.34299607  0.11641544  0.14909265     0.06660
N597        N  0.27871479  0.10224550  0.60017867    -0.27130
N598        N  0.29178097  0.12304239  0.61488946    -0.34990
C599        C  0.31927649  0.12513388  0.60594456     0.01210
C600        C  0.32394169  0.10447809  0.58486292     0.07240
C601        C  0.29778452  0.09026110  0.58174898    -0.05860
H602        H  0.33463673  0.14093738  0.61385326     0.07910
H603        H  0.29256864  0.07353460  0.56623145     0.09110
Cu604      Cu  0.27204586  0.14919286  0.64544863     0.44170
Cu605      Cu  0.23478899  0.09376532  0.60326681     0.41990
Cu606      Cu  0.19544801  0.14686652  0.64668696     0.43880
N607        N  0.24772158  0.17481333  0.67295940    -0.34510
N608        N  0.21921088  0.17481282  0.67258713    -0.28770
C609        C  0.20952948  0.19432243  0.69187170    -0.04870
C610        C  0.23314394  0.20699478  0.70528007     0.07350
C611        C  0.25701212  0.19400585  0.69278070     0.01140
H612        H  0.18697294  0.19856276  0.69619123     0.08800
H613        H  0.27947787  0.19853652  0.69736050     0.07870
N614        N  0.17616104  0.11421319  0.62259278    -0.35960
N615        N  0.19017127  0.09444435  0.60747772    -0.28140
C616        C  0.17094575  0.07567429  0.59618392    -0.03380
C617        C  0.14339514  0.08404240  0.60455037     0.05230
C618        C  0.14776342  0.10863182  0.62123310     0.03320
H619        H  0.17689336  0.05681381  0.58374257     0.08430
H620        H  0.13156018  0.12144504  0.63211878     0.07260
O621        O  0.50507575  0.11273118  0.53776826    -0.72780
O622        O  0.46688180  0.11565011  0.46128825    -0.73760
O623        O  0.44725589  0.11652753  0.51871209    -0.62380
O624        O  0.52410426  0.11159122  0.48020697    -0.70790
O625        O  0.52153216  0.06353522  0.48068495    -0.70350
O626        O  0.44289930  0.06880610  0.51797063    -0.61600
O627        O  0.46367793  0.06786689  0.45984249    -0.74110
O628        O  0.50074808  0.06482830  0.53902782    -0.72890
Cu629      Cu  0.48591967  0.11566404  0.49957424     1.04560
Cu630      Cu  0.48209765  0.06444858  0.49942127     1.04330
C631        C  0.50914397  0.08860801  0.55046920     0.93420
C632        C  0.45937212  0.09260442  0.44812897     0.92550
C633        C  0.43260812  0.09372108  0.52417401     0.84700
C634        C  0.53481896  0.08692547  0.47416420     0.90970
N635        N  0.18757086  0.90482163  0.39411591    -0.27130
N636        N  0.17388936  0.88764593  0.37577664    -0.34990
C637        C  0.14563944  0.89398205  0.37614063     0.01210
C638        C  0.14100606  0.91605810  0.39584160     0.07240
C639        C  0.16820069  0.92257345  0.40664051    -0.05860
H640        H  0.12985629  0.88364267  0.36235994     0.07910
H641        H  0.17353527  0.93891418  0.42252292     0.09110
Cu642      Cu  0.19312967  0.85641974  0.35003695     0.44170
Cu643      Cu  0.23195101  0.90345571  0.40097960     0.41990
Cu644      Cu  0.26939731  0.85503603  0.35119228     0.43880
N645        N  0.21685834  0.82835632  0.32446463    -0.34510
N646        N  0.24535495  0.82872751  0.32409305    -0.28770
C647        C  0.25483429  0.80908393  0.30488292    -0.04870
C648        C  0.23109557  0.79544020  0.29274063     0.07350
C649        C  0.20734670  0.80817144  0.30575304     0.01140
H650        H  0.27734988  0.80469206  0.30050233     0.08800
H651        H  0.18483320  0.80349516  0.30157055     0.07870
N652        N  0.28948061  0.87884577  0.38335488    -0.35960
N653        N  0.27625623  0.89613702  0.40185319    -0.28140
C654        C  0.29585418  0.90641637  0.42081792    -0.03380
C655        C  0.32260721  0.89475538  0.41404462     0.05230
C656        C  0.31763413  0.87766382  0.38996884     0.03320
H657        H  0.29081235  0.92053569  0.43876701     0.08430
H658        H  0.33319557  0.86500752  0.37803834     0.07260
N659        N  0.88867110  0.79304830  0.39065336    -0.27130
N660        N  0.86925333  0.80775005  0.37574971    -0.34990
C661        C  0.87457459  0.83620389  0.37877948     0.01210
C662        C  0.89843502  0.83961608  0.39651751     0.07240
C663        C  0.90692665  0.81175775  0.40342768    -0.05860
H664        H  0.86237862  0.85306176  0.36815792     0.07910
H665        H  0.92489676  0.80550979  0.41697822     0.09110
Cu666      Cu  0.83678297  0.78885305  0.35115161     0.44170
Cu667      Cu  0.88889292  0.74837087  0.39423134     0.41990
Cu668      Cu  0.83195923  0.71145843  0.35510074     0.43880
N669        N  0.80842682  0.76461817  0.32613959    -0.34510
N670        N  0.80751337  0.73602883  0.32677455    -0.28770
C671        C  0.78831803  0.72662438  0.30705596    -0.04870
C672        C  0.77628147  0.75048995  0.29361741     0.07350
C673        C  0.78946334  0.77422299  0.30633643     0.01140
H674        H  0.78317961  0.70410477  0.30313700     0.08800
H675        H  0.78598481  0.79678637  0.30115233     0.07870
N676        N  0.85815169  0.69171704  0.38556335    -0.35960
N677        N  0.87976340  0.70474640  0.39900592    -0.28140
C678        C  0.89206675  0.68595941  0.41750512    -0.03380
C679        C  0.87711253  0.66008800  0.41588163     0.05230
C680        C  0.85581294  0.66448351  0.39544818     0.03320
H681        H  0.90968173  0.69115544  0.43196786     0.08430
H682        H  0.83961406  0.64910010  0.38845054     0.07260
N683        N  0.68786571  0.10379047  0.40086012    -0.27130
N684        N  0.67395995  0.12241209  0.38428872    -0.34990
C685        C  0.64577875  0.12179851  0.39112396     0.01210
C686        C  0.64164873  0.10170866  0.41300626     0.07240
C687        C  0.66891492  0.09091185  0.41879279    -0.05860
H688        H  0.62971188  0.13564380  0.38137422     0.07910
H689        H  0.67459503  0.07481746  0.43478378     0.09110
Cu690      Cu  0.69389476  0.14863283  0.35378691     0.44170
Cu691      Cu  0.73192981  0.09710510  0.39833692     0.41990
Cu692      Cu  0.77187262  0.14732565  0.35267361     0.43880
N693        N  0.71867173  0.17430442  0.32653997    -0.34510
N694        N  0.74721510  0.17470778  0.32690610    -0.28770
C695        C  0.75665673  0.19427406  0.30749971    -0.04870
C696        C  0.73291214  0.20653524  0.29403857     0.07350
C697        C  0.70920325  0.19327842  0.30663714     0.01140
H698        H  0.77916248  0.19880624  0.30310955     0.08800
H699        H  0.68669091  0.19745008  0.30204062     0.07870
N700        N  0.79091200  0.11448254  0.37681154    -0.35960
N701        N  0.77616200  0.09552005  0.39239110    -0.28140
C702        C  0.79446334  0.07583372  0.40339727    -0.03380
C703        C  0.82207798  0.08297859  0.39464534     0.05230
C704        C  0.81910795  0.10760646  0.37792259     0.03320
H705        H  0.78812091  0.05772747  0.41682303     0.08430
H706        H  0.83607043  0.11911109  0.36662878     0.07260
N707        N  0.08407569  0.29465597  0.40003558    -0.27130
N708        N  0.10451021  0.30837597  0.38544037    -0.34990
C709        C  0.10569120  0.33597891  0.39442295     0.01210
C710        C  0.08484344  0.33988083  0.41540860     0.07240
C711        C  0.07141082  0.31333279  0.41840195    -0.05860
H712        H  0.12105375  0.35187624  0.38670222     0.07910
H713        H  0.05478710  0.30761511  0.43382317     0.09110
Cu714      Cu  0.13127996  0.28928408  0.35502644     0.44170
Cu715      Cu  0.07685511  0.25055046  0.39699504     0.41990
Cu716      Cu  0.12914053  0.21216276  0.35250230     0.43880
N717        N  0.15695842  0.26523093  0.32733184    -0.34510
N718        N  0.15695875  0.23663657  0.32728021    -0.28770
C719        C  0.17642852  0.22720345  0.30790584    -0.04870
C720        C  0.18907683  0.25105210  0.29486726     0.07350
C721        C  0.17613468  0.27482187  0.30766250     0.01140
H722        H  0.18063722  0.20464930  0.30325996     0.08800
H723        H  0.18066247  0.29740371  0.30337021     0.07870
N724        N  0.09671537  0.19223214  0.37616417    -0.35960
N725        N  0.07747801  0.20603337  0.39210547    -0.28140
C726        C  0.05868876  0.18670134  0.40312041    -0.03380
C727        C  0.06643201  0.15936810  0.39355573     0.05230
C728        C  0.09064330  0.16382276  0.37652278     0.03320
H729        H  0.04009380  0.19241494  0.41602729     0.08430
H730        H  0.10270882  0.14767274  0.36469444     0.07260
O731        O  0.00101260  0.03977315  0.43166437    -0.72780
O732        O  0.96215014  0.96163782  0.43751343    -0.73760
O733        O  0.02073328  0.98159908  0.43524656    -0.62380
O734        O  0.94281021  0.02031753  0.43410334    -0.70790
O735        O  0.94169607  0.01581436  0.38630133    -0.70350
O736        O  0.01933526  0.97834559  0.38733829    -0.61600
O737        O  0.96198923  0.95860843  0.38955785    -0.74110
O738        O  0.99951388  0.03588082  0.38393727    -0.72890
Cu739      Cu  0.98168592  0.00092678  0.43641805     1.04560
Cu740      Cu  0.98059910  0.99710933  0.38519945     1.04330
C741        C  0.00663858  0.04996081  0.40658339     0.93420
C742        C  0.95606710  0.94795760  0.41425392     0.92550
C743        C  0.03218235  0.97393965  0.41131366     0.84700
C744        C  0.93006269  0.02405584  0.40990318     0.90970
C745        C  0.71117732  0.25035822  0.22811235     0.03290
C746        C  0.73260433  0.27196417  0.22823289    -0.12860
C747        C  0.75414554  0.27230743  0.24962415     0.00790
C748        C  0.75411589  0.25073366  0.27102140    -0.11380
C749        C  0.73284909  0.22901759  0.27123894     0.03280
C750        C  0.71145749  0.22896427  0.24970333    -0.10810
H751        H  0.73249839  0.28854320  0.21167660     0.08880
H752        H  0.77064846  0.25086374  0.28757587     0.06410
H753        H  0.69498011  0.21228219  0.24977888     0.06250
C754        C  0.71137704  0.77245151  0.24894598     0.03290
C755        C  0.71180951  0.75122021  0.22721868    -0.12860
C756        C  0.73318967  0.72967751  0.22702948     0.00790
C757        C  0.75425062  0.72951586  0.24887524    -0.11380
C758        C  0.75407964  0.75065521  0.27069863     0.03280
C759        C  0.73259955  0.77203352  0.27058531    -0.10810
H760        H  0.69548734  0.75145781  0.21045274     0.08880
H761        H  0.77077430  0.71294796  0.24890204     0.06410
H762        H  0.73241495  0.78838003  0.28737734     0.06250
C763        C  0.25326398  0.75019986  0.22810245     0.03290
C764        C  0.25279034  0.77199757  0.24922200    -0.12860
C765        C  0.23121426  0.77240921  0.27053414     0.00790
C766        C  0.20988035  0.75074352  0.27054520    -0.11380
C767        C  0.21002363  0.72877957  0.24952850     0.03280
C768        C  0.23183093  0.72863097  0.22839183    -0.10810
H769        H  0.26928108  0.78866947  0.24907568     0.08880
H770        H  0.19315804  0.75097859  0.28691720     0.06410
H771        H  0.23211169  0.71175263  0.21213904     0.06250
C772        C  0.20912706  0.75131811  0.72988435     0.03290
C773        C  0.20961372  0.72941553  0.75098302    -0.12860
C774        C  0.23140774  0.72877578  0.77209356     0.00790
C775        C  0.25278400  0.75036627  0.77205598    -0.11380
C776        C  0.25249254  0.77249053  0.75123611     0.03280
C777        C  0.23063560  0.77278884  0.73020207    -0.10810
H778        H  0.19306790  0.71280213  0.75095866     0.08880
H779        H  0.26962245  0.74997069  0.78829723     0.06410
H780        H  0.23039010  0.78974497  0.71403583     0.06250
C781        C  0.21107263  0.27263082  0.74926751     0.03290
C782        C  0.23233808  0.27261767  0.77086716    -0.12860
C783        C  0.25389252  0.25132384  0.77124314     0.00790
C784        C  0.25404898  0.22985940  0.74971550    -0.11380
C785        C  0.23291193  0.22962549  0.72791892     0.03280
C786        C  0.21150493  0.25112109  0.72783597    -0.10810
H787        H  0.23206174  0.28916651  0.78746109     0.08880
H788        H  0.27060179  0.21332454  0.74995411     0.06410
H789        H  0.19512950  0.25109416  0.71111826     0.06250
C790        C  0.71150548  0.22843025  0.74992031     0.03290
C791        C  0.71153239  0.24980679  0.77146202    -0.12860
C792        C  0.73260885  0.27169595  0.77158704     0.00790
C793        C  0.75390140  0.27197552  0.74996911    -0.11380
C794        C  0.75422937  0.25064451  0.72835803     0.03280
C795        C  0.73287943  0.22897328  0.72840093    -0.10810
H796        H  0.69508953  0.24940564  0.78812151     0.08880
H797        H  0.77028375  0.28875485  0.75000151     0.06410
H798        H  0.73293406  0.21247203  0.71175684     0.06250
C799        C  0.75406238  0.72816192  0.74918235     0.03290
C800        C  0.75419091  0.75005368  0.72812050    -0.12860
C801        C  0.73306825  0.77180673  0.72829087     0.00790
C802        C  0.71172833  0.77163949  0.74986940    -0.11380
C803        C  0.71136103  0.74995113  0.77115340     0.03280
C804        C  0.73254692  0.72824062  0.77061868    -0.10810
H805        H  0.77072446  0.75016797  0.71155049     0.08880
H806        H  0.69539868  0.78840145  0.75008409     0.06410
H807        H  0.73232696  0.71144505  0.78696117     0.06250
C808        C  0.21165628  0.25101512  0.27229524     0.03290
C809        C  0.21182193  0.27220888  0.25052101    -0.12860
C810        C  0.23322596  0.27208631  0.22900289     0.00790
C811        C  0.25450728  0.25050623  0.22932988    -0.11380
C812        C  0.25451949  0.22916933  0.25092474     0.03280
C813        C  0.23310305  0.22959232  0.27236592    -0.10810
H814        H  0.19529047  0.28876958  0.25028183     0.08880
H815        H  0.27100195  0.25026032  0.21271491     0.06410
H816        H  0.23307521  0.21314608  0.28906500     0.06250
C817        C  0.05079651  0.13165001  0.39761138    -0.05300
C818        C  0.05194964  0.11087051  0.37554500    -0.32730
C819        C  0.03755440  0.08445032  0.37817409     0.36520
C820        C  0.02180063  0.07802421  0.40346589    -0.05660
C821        C  0.02084224  0.09862815  0.42578689    -0.32630
C822        C  0.03492430  0.12541682  0.42289520     0.36420
H823        H  0.06382000  0.11515763  0.35583443     0.16790
O824        O  0.04001444  0.06462160  0.35624167    -0.60130
H825        H  0.00896872  0.09408633  0.44545570     0.16810
O826        O  0.03409167  0.14472441  0.44539317    -0.60230
H827        H  0.01447513  0.15327713  0.44477705     0.43800
H828        H  0.02562485  0.07063265  0.34156055     0.43760
C829        C  0.90178311  0.03831396  0.40881597    -0.05300
C830        C  0.87819118  0.02364452  0.39667686    -0.32730
C831        C  0.85165494  0.03766265  0.39311801     0.36520
C832        C  0.84893097  0.06705958  0.40062664    -0.05660
C833        C  0.87248086  0.08164148  0.41298559    -0.32630
C834        C  0.89865016  0.06725470  0.41766288     0.36420
H835        H  0.88046027  0.00136242  0.38970923     0.16790
O836        O  0.82908421  0.02302948  0.38062391    -0.60130
H837        H  0.87057272  0.10425040  0.41891598     0.16810
O838        O  0.92155529  0.08212853  0.42922649    -0.60230
H839        H  0.91979487  0.07948110  0.45042235     0.43800
H840        H  0.81972994  0.01231778  0.39668218     0.43760
C841        C  0.94164226  0.91974460  0.41518795    -0.05300
C842        C  0.91145194  0.91868935  0.41487335    -0.32730
C843        C  0.89700577  0.89256234  0.40953103     0.36520
C844        C  0.91290649  0.86699842  0.40472021    -0.05660
C845        C  0.94318260  0.86794529  0.40657354    -0.32630
C846        C  0.95755522  0.89416106  0.41150934     0.36420
H847        H  0.89907023  0.93840124  0.41751019     0.16790
O848        O  0.86738622  0.89216105  0.40941261    -0.60130
H849        H  0.95580816  0.84858933  0.40283991     0.16810
O850        O  0.98715042  0.89486233  0.41105493    -0.60230
H851        H  0.99310177  0.89319099  0.43156991     0.43800
H852        H  0.86164505  0.90212401  0.39131994     0.43760
C853        C  0.11312731  0.93031685  0.40264287    -0.05300
C854        C  0.11253077  0.95979978  0.41033550    -0.32730
C855        C  0.08618357  0.97415024  0.41451546     0.36520
C856        C  0.06008250  0.95901545  0.41094195    -0.05660
C857        C  0.06059200  0.92949761  0.40438681    -0.32630
C858        C  0.08677916  0.91503911  0.40041908     0.36420
H859        H  0.13243942  0.97201250  0.41210662     0.16790
O860        O  0.08612073  0.00325218  0.42038907    -0.60130
H861        H  0.04053691  0.91766349  0.40187679     0.16810
O862        O  0.08636444  0.88579916  0.39521980    -0.60230
H863        H  0.07825968  0.88356672  0.37549856     0.43800
H864        H  0.08579064  0.00464158  0.44177052     0.43760
C865        C  0.56218408  0.08606381  0.45831950    -0.05300
C866        C  0.56182834  0.09154466  0.42860302    -0.32730
C867        C  0.58759711  0.09574187  0.41338184     0.36520
C868        C  0.61427753  0.09462488  0.42802999    -0.05660
C869        C  0.61456619  0.08769264  0.45764009    -0.32630
C870        C  0.58869187  0.08342033  0.47277953     0.36420
H871        H  0.54141813  0.09336369  0.41728860     0.16790
O872        O  0.58649624  0.10027538  0.38410137    -0.60130
H873        H  0.63479461  0.08668440  0.46933295     0.16810
O874        O  0.58948173  0.07823726  0.50192555    -0.60230
H875        H  0.58896744  0.05686444  0.50385605     0.43800
H876        H  0.57832855  0.11995592  0.38164622     0.43760
C877        C  0.35049387  0.10096747  0.56758522    -0.05300
C878        C  0.36472512  0.12575490  0.55748760    -0.32730
C879        C  0.39090856  0.12367326  0.54266120     0.36520
C880        C  0.40375675  0.09632314  0.53804097    -0.05660
C881        C  0.38896941  0.07137929  0.54749434    -0.32630
C882        C  0.36240553  0.07355930  0.56193446     0.36420
H883        H  0.35547751  0.14697518  0.56113687     0.16790
O884        O  0.40348020  0.14860023  0.53251752    -0.60130
H885        H  0.39821633  0.05011653  0.54418897     0.16810
O886        O  0.34918271  0.04893732  0.57196711    -0.60230
H887        H  0.33858216  0.04096045  0.55512809     0.43800
H888        H  0.41388716  0.15694981  0.54930199     0.43760
C889        C  0.41495342  0.09968516  0.36667053    -0.05300
C890        C  0.42511345  0.12447641  0.38073868    -0.32730
C891        C  0.44028818  0.12241206  0.40666059     0.36520
C892        C  0.44523240  0.09502081  0.41942913    -0.05660
C893        C  0.43567715  0.07005319  0.40480215    -0.32630
C894        C  0.42088358  0.07225409  0.37842689     0.36420
H895        H  0.42120909  0.14570742  0.37157881     0.16790
O896        O  0.45021553  0.14745912  0.41916240    -0.60130
H897        H  0.43924160  0.04879244  0.41399219     0.16810
O898        O  0.41084033  0.04763610  0.36522810    -0.60230
H899        H  0.42750171  0.04002070  0.35414277     0.43800
H900        H  0.43356198  0.15528436  0.43012306     0.43760
C901        C  0.55023660  0.09855362  0.63272722    -0.05300
C902        C  0.56419494  0.10698283  0.60707852    -0.32730
C903        C  0.55140172  0.10253808  0.58017080     0.36520
C904        C  0.52437325  0.08894742  0.57825908    -0.05660
C905        C  0.51078104  0.07908053  0.60343541    -0.32630
C906        C  0.52338411  0.08392392  0.63062792     0.36420
H907        H  0.58503856  0.11754954  0.60758262     0.16790
O908        O  0.56504555  0.11245623  0.55575786    -0.60130
H909        H  0.48967415  0.06898688  0.60214893     0.16810
O910        O  0.50827063  0.07599113  0.65483286    -0.60230
H911        H  0.51114336  0.05479488  0.65662365     0.43800
H912        H  0.58238475  0.10010014  0.55357347     0.43760
C913        C  0.11536942  0.06897433  0.59965887    -0.05300
C914        C  0.09273508  0.07381620  0.61926417    -0.32730
C915        C  0.06620619  0.05985145  0.61623475     0.36520
C916        C  0.06153022  0.04058395  0.59314339    -0.05660
C917        C  0.08365409  0.03615715  0.57291343    -0.32630
C918        C  0.11057332  0.04994456  0.57617600     0.36420
H919        H  0.09554786  0.08815714  0.63753205     0.16790
O920        O  0.04453223  0.06601821  0.63550147    -0.60130
H921        H  0.08029405  0.02154692  0.55490040     0.16810
O922        O  0.13157265  0.04534910  0.55581069    -0.60230
H923        H  0.13912803  0.02568235  0.55985222     0.43800
H924        H  0.04894256  0.05436927  0.65294941     0.43760
C925        C  0.02055269  0.92015764  0.58753272    -0.05300
C926        C  0.00505427  0.89568394  0.59652029    -0.32730
C927        C  0.01909431  0.86917777  0.60052039     0.36520
C928        C  0.04919446  0.86733288  0.59656194    -0.05660
C929        C  0.06456320  0.89176702  0.58709751    -0.32630
C930        C  0.05031401  0.91797737  0.58209520     0.36420
H931        H  0.98216863  0.89733284  0.60112254     0.16790
O932        O  0.00363277  0.84582499  0.61039100    -0.60130
H933        H  0.08770389  0.89056948  0.58386752     0.16810
O934        O  0.06593335  0.94181651  0.57375613    -0.60230
H935        H  0.06496973  0.94191860  0.55234716     0.43800
H936        H  0.99423191  0.83752265  0.59300358     0.43760
C937        C  0.91472882  0.13364919  0.59935365    -0.05300
C938        C  0.92731843  0.12094320  0.62370970    -0.32730
C939        C  0.94263773  0.09506353  0.62147999     0.36520
C940        C  0.94516438  0.08095998  0.59447091    -0.05660
C941        C  0.93338196  0.09434844  0.56983258    -0.32630
C942        C  0.91847277  0.12066628  0.57211595     0.36420
H943        H  0.92518502  0.13112019  0.64470530     0.16790
O944        O  0.95527275  0.08398607  0.64589892    -0.60130
H945        H  0.93507990  0.08409952  0.54884787     0.16810
O946        O  0.90607984  0.13252023  0.54795842    -0.60230
H947        H  0.92179287  0.14354688  0.53838595     0.43800
H948        H  0.93950876  0.07391236  0.65639839     0.43760
C949        C  0.84900159  0.93294970  0.59642220    -0.05300
C950        C  0.85717114  0.95343333  0.61710170    -0.32730
C951        C  0.88307074  0.96871417  0.61422097     0.36520
C952        C  0.90140495  0.96338759  0.59042200    -0.05660
C953        C  0.89247366  0.94379170  0.56896721    -0.32630
C954        C  0.86635142  0.92861319  0.57186848     0.36420
H955        H  0.84357901  0.95730862  0.63577226     0.16790
O956        O  0.89009010  0.98916405  0.63457511    -0.60130
H957        H  0.90625840  0.93938381  0.55057382     0.16810
O958        O  0.85872515  0.90848733  0.55145661    -0.60230
H959        H  0.84646720  0.91911143  0.53747430     0.43800
H960        H  0.89722141  0.97809321  0.65148463     0.43760
C961        C  0.39454077  0.04166174  0.07904759    -0.05300
C962        C  0.38390393  0.06992970  0.07918169    -0.32730
C963        C  0.37921493  0.08455708  0.10516990     0.36520
C964        C  0.38467499  0.07056954  0.13177966    -0.05660
C965        C  0.39670994  0.04256080  0.13139727    -0.32630
C966        C  0.40182566  0.02819106  0.10521381     0.36420
H967        H  0.37869979  0.08057484  0.05896208     0.16790
O968        O  0.36997684  0.11272549  0.10415629    -0.60130
H969        H  0.40121651  0.03126474  0.15137752     0.16810
O970        O  0.41207297  0.00035912  0.10550323    -0.60230
H971        H  0.43335106  0.00228480  0.10400468     0.43800
H972        H  0.34980627  0.11184090  0.09697389     0.43760
C973        C  0.38373958  0.93110712  0.86785245    -0.05300
C974        C  0.35886466  0.93862284  0.88326763    -0.32730
C975        C  0.36067957  0.95377454  0.90924265     0.36520
C976        C  0.38795868  0.96111995  0.92093830    -0.05660
C977        C  0.41293844  0.95418013  0.90506141    -0.32630
C978        C  0.41093492  0.93957957  0.87851221     0.36420
H979        H  0.33772250  0.93276290  0.87508343     0.16790
O980        O  0.33548669  0.96055467  0.92326654    -0.60130
H981        H  0.43410742  0.95972718  0.91335592     0.16810
O982        O  0.43570099  0.93221775  0.86405374    -0.60230
H983        H  0.44153849  0.94996887  0.85348496     0.43800
H984        H  0.32951054  0.97949578  0.91515579     0.43760
C985        C  0.38348781  0.13087630  0.92901985    -0.05300
C986        C  0.39725718  0.13077540  0.95619482    -0.32730
C987        C  0.40184598  0.10476836  0.97118648     0.36520
C988        C  0.39230477  0.07852217  0.95919202    -0.05660
C989        C  0.37949828  0.07838305  0.93186288    -0.32630
C990        C  0.37529222  0.10412923  0.91662682     0.36420
H991        H  0.40375806  0.15090548  0.96627635     0.16790
O992        O  0.41404561  0.10540592  0.99818143    -0.60130
H993        H  0.37250757  0.05811109  0.92230989     0.16810
O994        O  0.36407010  0.10266950  0.88924084    -0.60230
H995        H  0.34356783  0.09690834  0.89174891     0.43800
H996        H  0.43507354  0.10316404  0.99485109     0.43760
C997        C  0.38340728  0.86651652  0.06717580    -0.05300
C998        C  0.40401604  0.88636422  0.07725532    -0.32730
C999        C  0.40807989  0.91291722  0.06312638     0.36520
C1000       C  0.39072933  0.92008972  0.03920422    -0.05660
C1001       C  0.37047799  0.89992356  0.02891400    -0.32630
C1002       C  0.36708776  0.87308541  0.04246699     0.36420
H1003       H  0.41663587  0.88142450  0.09633629     0.16790
O1004       O  0.42761094  0.93243756  0.07398946    -0.60130
H1005       H  0.35710635  0.90510951  0.01041329     0.16810
O1006       O  0.34689937  0.85391442  0.03219234    -0.60230
H1007       H  0.35747054  0.84154356  0.01824922     0.43800
H1008       H  0.44632159  0.92720339  0.06499650     0.43760
C1009       C  0.57505037  0.03755532  0.91949016    -0.05300
C1010       C  0.60077709  0.03455610  0.90364306    -0.32730
C1011       C  0.60446313  0.04864947  0.87725853     0.36520
C1012       C  0.58232738  0.06615360  0.86626409    -0.05660
C1013       C  0.55608253  0.06825888  0.88119813    -0.32630
C1014       C  0.55231243  0.05411262  0.90775664     0.36420
H1015       H  0.61835376  0.02151238  0.91190268     0.16790
O1016       O  0.62996381  0.04549614  0.86251467    -0.60130
H1017       H  0.53892060  0.08175394  0.87278620     0.16810
O1018       O  0.52712925  0.05813675  0.92280860    -0.60230
H1019       H  0.51345500  0.04364440  0.91484383     0.43800
H1020       H  0.62660538  0.02919734  0.84896107     0.43760
C1021       C  0.58001224  0.93239187  0.13246068    -0.05300
C1022       C  0.58700612  0.91849068  0.10635702    -0.32730
C1023       C  0.58350552  0.93252529  0.07991751     0.36520
C1024       C  0.57225837  0.96066123  0.07907975    -0.05660
C1025       C  0.56413340  0.97440175  0.10475441    -0.32630
C1026       C  0.56801019  0.96052479  0.13144200     0.36420
H1027       H  0.59557889  0.89671324  0.10630385     0.16790
O1028       O  0.59100718  0.91851074  0.05487243    -0.60130
H1029       H  0.55585187  0.99632169  0.10419693     0.16810
O1030       O  0.56182223  0.97544294  0.15627991    -0.60230
H1031       H  0.54047546  0.97494243  0.15796100     0.43800
H1032       H  0.61182979  0.92273098  0.05209596     0.43760
C1033       C  0.57670692  0.91961545  0.96305517    -0.05300
C1034       C  0.55227108  0.90646261  0.95055045    -0.32730
C1035       C  0.55468373  0.88016720  0.93552634     0.36520
C1036       C  0.58186163  0.86699680  0.93236032    -0.05660
C1037       C  0.60597878  0.87945117  0.94566004    -0.32630
C1038       C  0.60360288  0.90526552  0.96114226     0.36420
H1039       H  0.53137608  0.91687981  0.95177649     0.16790
O1040       O  0.53075050  0.86849564  0.92250017    -0.60130
H1041       H  0.62689695  0.86910814  0.94397910     0.16810
O1042       O  0.62777043  0.91603971  0.97453917    -0.60230
H1043       H  0.63887243  0.92598398  0.95910945     0.43800
H1044       H  0.52098347  0.85710423  0.93782869     0.43760
C1045       C  0.57104216  0.08115059  0.03788533    -0.05300
C1046       C  0.58572867  0.10400803  0.02433866    -0.32730
C1047       C  0.58952180  0.13048689  0.03853278     0.36520
C1048       C  0.57959021  0.13386347  0.06705426    -0.05660
C1049       C  0.56449345  0.11118738  0.08044672    -0.32630
C1050       C  0.55969815  0.08507246  0.06580015     0.36420
H1051       H  0.59471979  0.10110397  0.00290814     0.16790
O1052       O  0.60455540  0.15227597  0.02509260    -0.60130
H1053       H  0.55669715  0.11366105  0.10238716     0.16810
O1054       O  0.54574625  0.06284135  0.07966760    -0.60230
H1055       H  0.52502972  0.06542774  0.07493831     0.43800
H1056       H  0.58988914  0.16314087  0.01389610     0.43760
C1057       C  0.44445528  0.41969249  0.90958785    -0.05300
C1058       C  0.41557720  0.41676741  0.91810952    -0.32730
C1059       C  0.40090944  0.39056433  0.91387919     0.36520
C1060       C  0.41548509  0.36669555  0.90190307    -0.05660
C1061       C  0.44482359  0.36925155  0.89476395    -0.32630
C1062       C  0.45922653  0.39570718  0.89817112     0.36420
H1063       H  0.40406130  0.43516683  0.92691095     0.16790
O1064       O  0.37246085  0.38831828  0.92183569    -0.60130
H1065       H  0.45624056  0.35104236  0.88546266     0.16810
O1066       O  0.48747729  0.39817040  0.88957627    -0.60230
H1067       H  0.49902727  0.39492934  0.90732387     0.43800
H1068       H  0.36143132  0.39723299  0.90578177     0.43760
C1069       C  0.52115231  0.57966737  0.90921982    -0.05300
C1070       C  0.50511864  0.60527131  0.91034503    -0.32730
C1071       C  0.51860835  0.63214037  0.90609566     0.36520
C1072       C  0.54856571  0.63345664  0.90033062    -0.05660
C1073       C  0.56456077  0.60761796  0.90012830    -0.32630
C1074       C  0.55106156  0.58090963  0.90459251     0.36420
H1075       H  0.48195166  0.60435942  0.91355560     0.16790
O1076       O  0.50193769  0.65662261  0.90551847    -0.60130
H1077       H  0.58760158  0.60802580  0.89615469     0.16810
O1078       O  0.56708410  0.55600080  0.90324047    -0.60230
H1079       H  0.57218233  0.55150153  0.92356293     0.43800
H1080       H  0.49752958  0.66093181  0.92604853     0.43760
C1081       C  0.40139661  0.53758430  0.90884731    -0.05300
C1082       C  0.38521718  0.53452655  0.88329575    -0.32730
C1083       C  0.35906283  0.54898067  0.87970491     0.36520
C1084       C  0.34858761  0.56696005  0.90173710    -0.05660
C1085       C  0.36384599  0.56922608  0.92781306    -0.32630
C1086       C  0.39016720  0.55465019  0.93152006     0.36420
H1087       H  0.39304911  0.52115950  0.86573521     0.16790
O1088       O  0.34408494  0.54579758  0.85432735    -0.60130
H1089       H  0.35579328  0.58301803  0.94494103     0.16810
O1090       O  0.40544406  0.55865244  0.95659030    -0.60230
H1091       H  0.39736189  0.54436307  0.97040890     0.43800
H1092       H  0.33033866  0.52969273  0.85790119     0.43760
C1093       C  0.61515383  0.43177631  0.89988498    -0.05300
C1094       C  0.60588197  0.44037971  0.92748758    -0.32730
C1095       C  0.57952888  0.45497301  0.93114695     0.36520
C1096       C  0.56236519  0.46168628  0.90684079    -0.05660
C1097       C  0.57253832  0.45406905  0.87922645    -0.32630
C1098       C  0.59842933  0.43916891  0.87565171     0.36420
H1099       H  0.61870361  0.43507490  0.94632985     0.16790
O1100       O  0.57099194  0.46268914  0.95845172    -0.60130
H1101       H  0.56023340  0.45931964  0.86003135     0.16810
O1102       O  0.60779531  0.43298858  0.84819515    -0.60230
H1103       H  0.59494080  0.41729979  0.84114989     0.43800
H1104       H  0.56119848  0.44530548  0.96638876     0.43760
C1105       C  0.11620371  0.59825070  0.93302572    -0.05300
C1106       C  0.10415916  0.62249333  0.94641317    -0.32730
C1107       C  0.07845338  0.62026875  0.96196948     0.36520
C1108       C  0.06382616  0.59339388  0.96385014    -0.05660
C1109       C  0.07658655  0.56882164  0.95120957    -0.32630
C1110       C  0.10278578  0.57109657  0.93611537     0.36420
H1111       H  0.11473735  0.64338371  0.94472230     0.16790
O1112       O  0.06802920  0.64457718  0.97540501    -0.60130
H1113       H  0.06595317  0.54794587  0.95240650     0.16810
O1114       O  0.11417674  0.54706437  0.92302079    -0.60230
H1115       H  0.12626259  0.53772563  0.93803311     0.43800
H1116       H  0.05815309  0.65575473  0.96001968     0.43760
C1117       C  0.05086049  0.59544224  0.13279800    -0.05300
C1118       C  0.02054112  0.59622947  0.13222110    -0.32730
C1119       C  0.00557000  0.59234027  0.10619927     0.36520
C1120       C  0.02092787  0.58687219  0.08058556    -0.05660
C1121       C  0.05105001  0.58461238  0.08137514    -0.32630
C1122       C  0.06609083  0.58917238  0.10721519     0.36420
H1123       H  0.00853631  0.60109773  0.15171876     0.16790
O1124       O  0.97609360  0.59513573  0.10575307    -0.60130
H1125       H  0.06301314  0.58050422  0.06166560     0.16810
O1126       O  0.09562956  0.58704413  0.10738339    -0.60230
H1127       H  0.10271085  0.60522375  0.09841296     0.43800
H1128       H  0.96850078  0.57513508  0.10765733     0.43760
C1129       C  0.91528037  0.60281257  0.86715500    -0.05300
C1130       C  0.92526277  0.57536137  0.87550077    -0.32730
C1131       C  0.93980592  0.57149412  0.90185838     0.36520
C1132       C  0.94510050  0.59548141  0.92007049    -0.05660
C1133       C  0.93607392  0.62303751  0.91093227    -0.32630
C1134       C  0.92119981  0.62679250  0.88496937     0.36420
H1135       H  0.92112324  0.55671024  0.86191196     0.16790
O1136       O  0.94895566  0.54429091  0.90933770    -0.60130
H1137       H  0.94017506  0.64197316  0.92413039     0.16810
O1138       O  0.91362268  0.65425470  0.87663227    -0.60230
H1139       H  0.89756831  0.65991855  0.88963718     0.43800
H1140       H  0.93193850  0.53483867  0.91834373     0.43760
C1141       C  0.84852291  0.59747613  0.06635641    -0.05300
C1142       C  0.86222581  0.57041323  0.06585061    -0.32730
C1143       C  0.88866037  0.56685128  0.05137546     0.36520
C1144       C  0.90148673  0.59061081  0.03704486    -0.05660
C1145       C  0.88667453  0.61715993  0.03639306    -0.32630
C1146       C  0.86061708  0.62072995  0.05103230     0.36420
H1147       H  0.85297144  0.55234239  0.07759474     0.16790
O1148       O  0.90242924  0.54064369  0.05280861    -0.60130
H1149       H  0.89557705  0.63558667  0.02493235     0.16810
O1150       O  0.84680824  0.64695758  0.04984836    -0.60230
H1151       H  0.85696919  0.65941640  0.06404955     0.43800
H1152       H  0.89413249  0.52901701  0.03681031     0.43760
C1153       C  0.85076872  0.40001072  0.93109948    -0.05300
C1154       C  0.87423865  0.38199095  0.92424194    -0.32730
C1155       C  0.90093337  0.38531027  0.93776576     0.36520
C1156       C  0.90491885  0.40705155  0.95863094    -0.05660
C1157       C  0.88201111  0.42574551  0.96511013    -0.32630
C1158       C  0.85498597  0.42223448  0.95176172     0.36420
H1159       H  0.87207569  0.36472807  0.90862417     0.16790
O1160       O  0.92337781  0.36771997  0.92968693    -0.60130
H1161       H  0.88484455  0.44269568  0.98105657     0.16810
O1162       O  0.83326468  0.44112340  0.95862251    -0.60230
H1163       H  0.82622050  0.43485741  0.97788934     0.43800
H1164       H  0.92010099  0.34920548  0.94004593     0.43760
C1165       C  0.91558986  0.40184753  0.13292019    -0.05300
C1166       C  0.90094588  0.41448067  0.10958729    -0.32730
C1167       C  0.91506963  0.41914968  0.08322048     0.36520
C1168       C  0.94379501  0.41006054  0.07968989    -0.05660
C1169       C  0.95853644  0.39766470  0.10306943    -0.32630
C1170       C  0.94478425  0.39406810  0.12978685     0.36420
H1171       H  0.87847911  0.42059137  0.11180884     0.16790
O1172       O  0.90013632  0.43095138  0.06052239    -0.60130
H1173       H  0.98064697  0.39047045  0.10047247     0.16810
O1174       O  0.95944437  0.38126180  0.15212030    -0.60230
H1175       H  0.97012379  0.39724414  0.16166945     0.43800
H1176       H  0.90329545  0.45213152  0.06213289     0.43760
C1177       C  0.02338182  0.41122138  0.92136902    -0.05300
C1178       C  0.05329995  0.40733997  0.92064440    -0.32730
C1179       C  0.06758711  0.40280005  0.89438409     0.36520
C1180       C  0.05178776  0.40201373  0.86830692    -0.05660
C1181       C  0.02185823  0.40712752  0.86908774    -0.32630
C1182       C  0.00764010  0.41165162  0.89543654     0.36420
H1183       H  0.06556009  0.40722537  0.94059765     0.16790
O1184       O  0.09706429  0.39993022  0.89438360    -0.60130
H1185       H  0.00926805  0.40655052  0.84937466     0.16810
O1186       O  0.97820947  0.41489980  0.89577915    -0.60230
H1187       H  0.97494278  0.43610119  0.89522709     0.43800
H1188       H  0.10091454  0.38077998  0.90327052     0.43760
C1189       C  0.06086592  0.41291552  0.04213910    -0.05300
C1190       C  0.06088608  0.40110086  0.06993686    -0.32730
C1191       C  0.08676741  0.39610644  0.08456430     0.36520
C1192       C  0.11339547  0.40258162  0.07111475    -0.05660
C1193       C  0.11317227  0.41556513  0.04354426    -0.32630
C1194       C  0.08708380  0.42083973  0.02910342     0.36420
H1195       H  0.04065615  0.39519308  0.08018934     0.16790
O1196       O  0.08564011  0.38562215  0.11227331    -0.60130
H1197       H  0.13323330  0.42072831  0.03267224     0.16810
O1198       O  0.08753480  0.43186764  0.00158789    -0.60230
H1199       H  0.08603836  0.45313810  0.00403210     0.43800
H1200       H  0.07890781  0.36529160  0.11048379     0.43760
C1201       C  0.40304808  0.45938536  0.08652120    -0.05300
C1202       C  0.37754499  0.47524812  0.08318842    -0.32730
C1203       C  0.35061657  0.46211364  0.08798416     0.36520
C1204       C  0.34916331  0.43272329  0.09639753    -0.05660
C1205       C  0.37488280  0.41679465  0.09856150    -0.32630
C1206       C  0.40161182  0.42992962  0.09372103     0.36420
H1207       H  0.37856676  0.49815846  0.07822263     0.16790
O1208       O  0.32619519  0.47878300  0.08666199    -0.60130
H1209       H  0.37438883  0.39412334  0.10449887     0.16810
O1210       O  0.42636197  0.41408875  0.09725154    -0.60230
H1211       H  0.43061800  0.40602644  0.07785403     0.43800
H1212       H  0.32225904  0.48135894  0.06575295     0.43760
C1213       C  0.44362025  0.57975285  0.09288845    -0.05300
C1214       C  0.44961181  0.59734956  0.11692789    -0.32730
C1215       C  0.43588158  0.62401362  0.12041773     0.36520
C1216       C  0.41556240  0.63330731  0.09993756    -0.05660
C1217       C  0.41012661  0.61633929  0.07541977    -0.32630
C1218       C  0.42409473  0.58968135  0.07172123     0.36420
H1219       H  0.46487986  0.59031032  0.13320610     0.16790
O1220       O  0.44206407  0.64064202  0.14419001    -0.60130
H1221       H  0.39436582  0.62334976  0.05961007     0.16810
O1222       O  0.41705586  0.57270213  0.04844051    -0.60230
H1223       H  0.42915072  0.58002313  0.03232295     0.43800
H1224       H  0.45770195  0.65391756  0.13786903     0.43760
C1225       C  0.61446058  0.56927877  0.10077544    -0.05300
C1226       C  0.59535291  0.56780471  0.12420452    -0.32730
C1227       C  0.56908767  0.55318198  0.12195638     0.36520
C1228       C  0.56103319  0.53998099  0.09562643    -0.05660
C1229       C  0.58010870  0.54153074  0.07202329    -0.32630
C1230       C  0.60682451  0.55575301  0.07455380     0.36420
H1231       H  0.60088307  0.57781252  0.14464406     0.16790
O1232       O  0.55103231  0.55289904  0.14546666    -0.60130
H1233       H  0.57440243  0.53159881  0.05159313     0.16810
O1234       O  0.62462996  0.55748381  0.05092655    -0.60230
H1235       H  0.63385421  0.53818551  0.04942606     0.43800
H1236       H  0.55812773  0.53690639  0.15786485     0.43760
C1237       C  0.52218207  0.42061504  0.08837903    -0.05300
C1238       C  0.50632424  0.39489420  0.09080227    -0.32730
C1239       C  0.52041323  0.36839661  0.09489474     0.36520
C1240       C  0.55077115  0.36764356  0.09732483    -0.05660
C1241       C  0.56655439  0.39347104  0.09437610    -0.32630
C1242       C  0.55245605  0.41979134  0.08963585     0.36420
H1243       H  0.48296539  0.39545871  0.09036566     0.16790
O1244       O  0.50422949  0.34378457  0.09869487    -0.60130
H1245       H  0.58988934  0.39327818  0.09600494     0.16810
O1246       O  0.56834067  0.44481769  0.08773817    -0.60230
H1247       H  0.57141660  0.44793761  0.06675600     0.43800
H1248       H  0.49781146  0.33814320  0.07903589     0.43760
C1249       C  0.89436791  0.41953442  0.53772387    -0.05300
C1250       C  0.88729384  0.39495332  0.52148112    -0.32730
C1251       C  0.88296286  0.36820039  0.53506079     0.36520
C1252       C  0.88471608  0.36613945  0.56542091    -0.05660
C1253       C  0.89239467  0.39074256  0.58153285    -0.32630
C1254       C  0.89763903  0.41723214  0.56780544     0.36420
H1255       H  0.88436529  0.39669311  0.49830580     0.16790
O1256       O  0.87482095  0.34480297  0.51871343    -0.60130
H1257       H  0.89400893  0.38948644  0.60485803     0.16810
O1258       O  0.90415555  0.44115034  0.58411717    -0.60230
H1259       H  0.92554615  0.44203369  0.58450966     0.43800
H1260       H  0.89288272  0.33771009  0.50965950     0.43760
C1261       C  0.88883410  0.58071065  0.46263547    -0.05300
C1262       C  0.86195720  0.59483463  0.46255418    -0.32730
C1263       C  0.85816177  0.62098604  0.44793440     0.36520
C1264       C  0.88149628  0.63381626  0.43334657    -0.05660
C1265       C  0.90873995  0.62068373  0.43446572    -0.32630
C1266       C  0.91254164  0.59422262  0.44885843     0.36420
H1267       H  0.84352489  0.58540438  0.47351110     0.16790
O1268       O  0.83170446  0.63428289  0.44864660    -0.60130
H1269       H  0.92686810  0.63044072  0.42327422     0.16810
O1270       O  0.93911551  0.58121443  0.44807448    -0.60230
H1271       H  0.95004009  0.58983039  0.46438615     0.43800
H1272       H  0.81955628  0.62345422  0.43467916     0.43760
C1273       C  0.89288419  0.46210403  0.41955462    -0.05300
C1274       C  0.90341030  0.43385064  0.41641529    -0.32730
C1275       C  0.89937798  0.41875301  0.39045667     0.36520
C1276       C  0.88560384  0.43231213  0.36700412    -0.05660
C1277       C  0.87631283  0.46105735  0.36971053    -0.32630
C1278       C  0.87952799  0.47584024  0.39594180     0.36420
H1279       H  0.91360143  0.42304911  0.43451699     0.16790
O1280       O  0.90913706  0.39084586  0.38808304    -0.60130
H1281       H  0.86562657  0.47166531  0.35178578     0.16810
O1282       O  0.86896425  0.50343987  0.39854169    -0.60230
H1283       H  0.88567368  0.51632222  0.39462657     0.43800
H1284       H  0.89333836  0.37861219  0.39589873     0.43760
C1285       C  0.89098421  0.53716268  0.58055484    -0.05300
C1286       C  0.90565121  0.56334352  0.58534924    -0.32730
C1287       C  0.90198399  0.57848125  0.61133824     0.36520
C1288       C  0.88436772  0.56688667  0.63324023    -0.05660
C1289       C  0.87074709  0.54012314  0.62897371    -0.32630
C1290       C  0.87370448  0.52539455  0.60270410     0.36420
H1291       H  0.91895928  0.57266562  0.56846353     0.16790
O1292       O  0.91577897  0.60448987  0.61523320    -0.60130
H1293       H  0.85710481  0.53105963  0.64573419     0.16810
O1294       O  0.85931473  0.49972234  0.59868199    -0.60230
H1295       H  0.87155325  0.48485466  0.60805714     0.43800
H1296       H  0.90237223  0.61922667  0.60736450     0.43760
C1297       C  0.40356304  0.90600042  0.45897049    -0.05300
C1298       C  0.39681830  0.87972747  0.44526766    -0.32730
C1299       C  0.37068192  0.87582280  0.43078824     0.36520
C1300       C  0.35029355  0.89841042  0.42979761    -0.05660
C1301       C  0.35661861  0.92458188  0.44401693    -0.32630
C1302       C  0.38309716  0.92858521  0.45833386     0.36420
H1303       H  0.41192690  0.86185668  0.44567576     0.16790
O1304       O  0.36471316  0.84920021  0.41905286    -0.60130
H1305       H  0.34116420  0.94214499  0.44373126     0.16810
O1306       O  0.38824691  0.95421728  0.47238946    -0.60230
H1307       H  0.39556222  0.96759200  0.45729143     0.43800
H1308       H  0.37753949  0.84750619  0.40196117     0.43760
C1309       C  0.55966460  0.91167862  0.54352131    -0.05300
C1310       C  0.58458067  0.92385347  0.53142197    -0.32730
C1311       C  0.61163957  0.91970788  0.54446463     0.36520
C1312       C  0.61392442  0.90342115  0.57035481    -0.05660
C1313       C  0.58836982  0.89275254  0.58299935    -0.32630
C1314       C  0.56163882  0.89635890  0.56960403     0.36420
H1315       H  0.58327343  0.93541111  0.51108280     0.16790
O1316       O  0.63561068  0.93033864  0.53071596    -0.60130
H1317       H  0.58882985  0.88100859  0.60318854     0.16810
O1318       O  0.53736906  0.88495457  0.58231387    -0.60230
H1319       H  0.53706080  0.86428243  0.57652395     0.43800
H1320       H  0.63637016  0.95115973  0.53590985     0.43760
C1321       C  0.52551563  0.90883025  0.42318326    -0.05300
C1322       C  0.51919161  0.92754805  0.40019790    -0.32730
C1323       C  0.53268893  0.92406740  0.37318974     0.36520
C1324       C  0.55330688  0.90181433  0.36905602    -0.05660
C1325       C  0.56011667  0.88392782  0.39265815    -0.32630
C1326       C  0.54651164  0.88722895  0.41930395     0.36420
H1327       H  0.50315857  0.94438099  0.40289578     0.16790
O1328       O  0.52587905  0.94291079  0.35137276    -0.60130
H1329       H  0.57571844  0.86669206  0.39066019     0.16810
O1330       O  0.55450201  0.86957569  0.44177488    -0.60230
H1331       H  0.54453687  0.85088742  0.43819869     0.43800
H1332       H  0.50671479  0.93649527  0.34421025     0.43760
C1333       C  0.43957380  0.90770684  0.57864826    -0.05300
C1334       C  0.42297239  0.88277540  0.58365513    -0.32730
C1335       C  0.40856576  0.87855271  0.60974697     0.36520
C1336       C  0.41058640  0.89947738  0.63182680    -0.05660
C1337       C  0.42731941  0.92450001  0.62698817    -0.32630
C1338       C  0.44157296  0.92883657  0.60051095     0.36420
H1339       H  0.42124813  0.86611633  0.56724749     0.16790
O1340       O  0.39412682  0.85294258  0.61399727    -0.60130
H1341       H  0.42930038  0.94078051  0.64371911     0.16810
O1342       O  0.45845489  0.95298314  0.59682786    -0.60230
H1343       H  0.44498935  0.96838047  0.59047589     0.43800
H1344       H  0.37659948  0.85416936  0.60173639     0.43760
C1345       C  0.07622666  0.57888205  0.54072097    -0.05300
C1346       C  0.05497831  0.60026306  0.53772639    -0.32730
C1347       C  0.05761144  0.62690664  0.55217868     0.36520
C1348       C  0.08156012  0.63219661  0.57043961    -0.05660
C1349       C  0.10240670  0.61040249  0.57360267    -0.32630
C1350       C  0.09994644  0.58412820  0.55903157     0.36420
H1351       H  0.03650859  0.59649897  0.52384665     0.16790
O1352       O  0.03616095  0.64705611  0.54902418    -0.60130
H1353       H  0.12111424  0.61361674  0.58722015     0.16810
O1354       O  0.12036749  0.56318111  0.56382989    -0.60230
H1355       H  0.13705964  0.56869614  0.55156035     0.43800
H1356       H  0.03921223  0.65558900  0.52958238     0.43760
C1357       C  0.08058526  0.36598028  0.43306518    -0.05300
C1358       C  0.05350327  0.37947433  0.43420172    -0.32730
C1359       C  0.05007591  0.40597131  0.44866975     0.36520
C1360       C  0.07399774  0.41907788  0.46239181    -0.05660
C1361       C  0.10062537  0.40447085  0.46240919    -0.32630
C1362       C  0.10405683  0.37835144  0.44775034     0.36420
H1363       H  0.03527264  0.37000357  0.42294780     0.16790
O1364       O  0.02373773  0.41944434  0.44794672    -0.60130
H1365       H  0.11920795  0.41354378  0.47340318     0.16810
O1366       O  0.13034689  0.36471288  0.44836507    -0.60230
H1367       H  0.14252968  0.37526838  0.43421166     0.43800
H1368       H  0.01275129  0.41112378  0.46437543     0.43760
C1369       C  0.08056613  0.56731657  0.36691726    -0.05300
C1370       C  0.07067279  0.58253033  0.39120475    -0.32730
C1371       C  0.06619344  0.56823998  0.41750596     0.36520
C1372       C  0.07267729  0.53863953  0.41996079    -0.05660
C1373       C  0.08226415  0.52330931  0.39566306    -0.32630
C1374       C  0.08567980  0.53734915  0.36904726     0.36420
H1375       H  0.06657632  0.60557376  0.38978458     0.16790
O1376       O  0.05715663  0.58370466  0.44112390    -0.60130
H1377       H  0.08753668  0.50053305  0.39747255     0.16810
O1378       O  0.09589966  0.52206877  0.34579587    -0.60230
H1379       H  0.07870686  0.51238659  0.33740387     0.43800
H1380       H  0.03579334  0.58221095  0.44090928     0.43760
C1381       C  0.08132023  0.43445068  0.63412580    -0.05300
C1382       C  0.05667330  0.42955447  0.61724812    -0.32730
C1383       C  0.05334506  0.44353115  0.59054681     0.36520
C1384       C  0.07498411  0.46260050  0.58050431    -0.05660
C1385       C  0.09910602  0.46815666  0.59809305    -0.32630
C1386       C  0.10227877  0.45433620  0.62474118     0.36420
H1387       H  0.04050639  0.41410403  0.62431154     0.16790
O1388       O  0.02991378  0.43690208  0.57366371    -0.60130
H1389       H  0.11576737  0.48307018  0.59102691     0.16810
O1390       O  0.12623698  0.45996372  0.64124702    -0.60230
H1391       H  0.12037568  0.47578249  0.65448869     0.43800
H1392       H  0.01415198  0.44950676  0.58081642     0.43760
loop_ 
_geom_bond_atom_site_label_1 
_geom_bond_atom_site_label_2 
_geom_bond_distance 
_geom_bond_site_symmetry_2 
_ccdc_geom_bond_type 
O1           Cu9   2.027       .  S
O1           C11   1.280       .  A
O2           Cu9   2.030       .  S
O2           C12   1.281       .  A
O3           Cu9   2.018       .  S
O3           C13   1.279       .  A
O4           Cu9   2.016       .  S
O4           C14   1.278       .  A
O5          Cu10   1.999       .  S
O5           C14   1.276       .  A
O6          Cu10   1.995       .  S
O6           C13   1.277       .  A
O7          Cu10   1.978       .  S
O7           C12   1.275       .  A
O8          Cu10   1.980       .  S
O8           C11   1.275       .  A
Cu9         Cu10   2.372       .  S
C11        C1345   1.477       .  S
C12        C1360   1.483       .  S
C13        C1384   1.479       .  S
C14        C1372   1.466       .  S
O15         Cu23   2.033       .  S
O15          C25   1.281       .  A
O16         Cu23   2.031       .  S
O16          C26   1.280       .  A
O17         Cu23   2.028       .  S
O17          C27   1.280       .  A
O18         Cu23   2.026       .  S
O18          C28   1.279       .  A
O19         Cu24   1.986       .  S
O19          C28   1.275       .  A
O20         Cu24   1.988       .  S
O20          C27   1.276       .  A
O21         Cu24   1.979       .  S
O21          C26   1.275       .  A
O22         Cu24   1.974       .  S
O22          C25   1.275       .  A
Cu23        Cu24   2.371       .  S
C25        C1333   1.478       .  S
C26        C1321   1.476       .  S
C27        C1297   1.484       .  S
C28        C1309   1.468       .  S
O29         Cu37   1.993       .  S
O29          C39   1.277       .  A
O30         Cu37   1.994       .  S
O30          C40   1.275       .  A
O31         Cu37   2.001       .  S
O31          C41   1.277       .  A
O32         Cu37   1.999       .  S
O32          C42   1.276       .  A
O33         Cu38   2.022       .  S
O33          C42   1.279       .  A
O34         Cu38   2.018       .  S
O34          C41   1.279       .  A
O35         Cu38   2.019       .  S
O35          C40   1.278       .  A
O36         Cu38   2.020       .  S
O36          C39   1.279       .  A
Cu37        Cu38   2.372       .  S
C39        C1261   1.485       .  S
C40        C1249   1.465       .  S
C41        C1285   1.473       .  S
C42        C1273   1.470       .  S
O43         Cu51   2.019       .  S
O43          C53   1.278       .  A
O44         Cu51   2.017       .  S
O44          C54   1.279       .  A
O45         Cu51   2.024       .  S
O45          C55   1.280       .  A
O46         Cu51   2.021       .  S
O46          C56   1.278       .  A
O47         Cu52   1.988       .  S
O47          C56   1.274       .  A
O48         Cu52   1.985       .  S
O48          C55   1.275       .  A
O49         Cu52   1.997       .  S
O49          C54   1.277       .  A
O50         Cu52   1.995       .  S
O50          C53   1.275       .  A
Cu51        Cu52   2.375       .  S
C53        C1237   1.465       .  S
C54        C1213   1.477       .  S
C55        C1228   1.482       .  S
C56        C1201   1.464       .  S
N57          N58   1.321       .  A
N57          C61   1.345       .  A
N57         Cu65   2.068       .  S
N58          C59   1.341       .  A
N58         Cu64   2.071       .  S
C59          C60   1.388       .  A
C59          H62   1.080       .  S
C60        C1192   1.486       .  S
C60          C61   1.387       .  A
C61          H63   1.082       .  S
Cu64         N67   2.071       .  S
Cu65         N75   2.068       .  S
Cu66         N68   2.077       .  S
Cu66         N74   2.077       .  S
N67          N68   1.321       .  A
N67          C71   1.345       .  A
N68          C69   1.346       .  A
C69          C70   1.385       .  A
C69          H72   1.082       .  S
C70         C810   1.477       .  S
C70          C71   1.384       .  A
C71          H73   1.082       .  S
N74          N75   1.322       .  A
N74          C78   1.343       .  A
N75          C76   1.345       .  A
C76          C77   1.385       .  A
C76          H79   1.081       .  S
C77        C1204   1.483       .  S
C77          C78   1.386       .  A
C78          H80   1.082       .  S
N81          N82   1.323       .  A
N81          C85   1.347       .  A
N81         Cu89   2.074       .  S
N82          C83   1.343       .  A
N82         Cu88   2.074       .  S
C83          C84   1.380       .  A
C83          H86   1.082       .  S
C84        C1381   1.468       .  S
C84          C85   1.381       .  A
C85          H87   1.082       .  S
Cu88         N91   2.074       .  S
Cu89         N99   2.074       .  S
Cu90         N92   2.073       .  S
Cu90         N98   2.074       .  S
N91          N92   1.321       .  A
N91          C95   1.346       .  A
N92          C93   1.345       .  A
C93          C94   1.384       .  A
C93          H96   1.082       .  S
C94         C781   1.477       .  S
C94          C95   1.385       .  A
C95          H97   1.082       .  S
N98          N99   1.322       .  A
N98         C102   1.343       .  A
N99         C100   1.346       .  A
C100        C101   1.386       .  A
C100        H103   1.082       .  S
C101       C1180   1.483       .  S
C101        C102   1.386       .  A
C102        H104   1.081       .  S
N105        N106   1.323       .  A
N105        C109   1.346       .  A
N105       Cu113   2.071       .  S
N106        C107   1.346       .  A
N106       Cu112   2.081       .  S
C107        C108   1.383       .  A
C107        H110   1.082       .  S
C108       C1276   1.472       .  S
C108        C109   1.381       .  A
C109        H111   1.082       .  S
Cu112       N115   2.081       .  S
Cu113       N123   2.071       .  S
Cu114       N116   2.079       .  S
Cu114       N122   2.079       .  S
N115        N116   1.323       .  A
N115        C119   1.346       .  A
N116        C117   1.346       .  A
C117        C118   1.385       .  A
C117        H120   1.082       .  S
C118        C747   1.481       .  S
C118        C119   1.386       .  A
C119        H121   1.082       .  S
N122        N123   1.323       .  A
N122        C126   1.345       .  A
N123        C124   1.345       .  A
C124        C125   1.381       .  A
C124        H127   1.082       .  S
C125       C1165   1.473       .  S
C125        C126   1.383       .  A
C126        H128   1.082       .  S
O129       Cu137   2.017   1_455  S
O129        C139   1.278       .  A
O130       Cu137   2.019   1_554  S
O130        C140   1.278       .  A
O131       Cu137   2.026   1_454  S
O131        C141   1.279       .  A
O132       Cu137   2.018       .  S
O132        C142   1.279       .  A
O133       Cu138   1.989   1_556  S
O133        C142   1.276       .  A
O134       Cu138   1.981   1_455  S
O134        C141   1.274       .  A
O135       Cu138   1.998       .  S
O135        C140   1.276       .  A
O136       Cu138   1.997   1_456  S
O136        C139   1.275       .  A
Cu137      Cu138   2.378   1_556  S
C139       C1177   1.465       .  S
C140       C1168   1.468       .  S
C141       C1189   1.464       .  S
C142       C1156   1.474       .  S
N143        N144   1.322       .  A
N143        C147   1.346       .  A
N143       Cu151   2.070       .  S
N144        C145   1.342       .  A
N144       Cu150   2.072       .  S
C145        C146   1.384       .  A
C145        H148   1.082       .  S
C146       C1225   1.479       .  S
C146        C147   1.385       .  A
C147        H149   1.081       .  S
Cu150       N153   2.072       .  S
Cu151       N161   2.069       .  S
Cu152       N154   2.079       .  S
Cu152       N160   2.080       .  S
N153        N154   1.321       .  A
N153        C157   1.345       .  A
N154        C155   1.347       .  A
C155        C156   1.386       .  A
C155        H158   1.082       .  S
C156        C756   1.480       .  S
C156        C157   1.385       .  A
C157        H159   1.082       .  S
N160        N161   1.323       .  A
N160        C164   1.343       .  A
N161        C162   1.347       .  A
C162        C163   1.380       .  A
C162        H165   1.082       .  S
C163       C1141   1.471       .  S
C163        C164   1.382       .  A
C164        H166   1.082       .  S
N167        N168   1.324       .  A
N167        C171   1.346       .  A
N167       Cu175   2.075       .  S
N168        C169   1.346       .  A
N168       Cu174   2.082       .  S
C169        C170   1.382       .  A
C169        H172   1.082       .  S
C170       C1288   1.470       .  S
C170        C171   1.380       .  A
C171        H173   1.082       .  S
Cu174       N177   2.082       .  S
Cu175       N185   2.074       .  S
Cu176       N178   2.071       .  S
Cu176       N184   2.071       .  S
N177        N178   1.321       .  A
N177        C181   1.347       .  A
N178        C179   1.345       .  A
C179        C180   1.384       .  A
C179        H182   1.082       .  S
C180        C799   1.480       .  S
C180        C181   1.387       .  A
C181        H183   1.082       .  S
N184        N185   1.321       .  A
N184        C188   1.342       .  A
N185        C186   1.347       .  A
C186        C187   1.386       .  A
C186        H189   1.082       .  S
C187       C1129   1.481       .  S
C187        C188   1.384       .  A
C188        H190   1.081       .  S
N191        N192   1.322       .  A
N191        C195   1.345       .  A
N191       Cu199   2.067       .  S
N192        C193   1.345       .  A
N192       Cu198   2.080       .  S
C193        C194   1.383       .  A
C193        H196   1.082       .  S
C194       C1369   1.473       .  S
C194        C195   1.381       .  A
C195        H197   1.082       .  S
Cu198       N201   2.080       .  S
Cu199       N209   2.067       .  S
Cu200       N202   2.079       .  S
Cu200       N208   2.079       .  S
N201        N202   1.323       .  A
N201        C205   1.346       .  A
N202        C203   1.346       .  A
C203        C204   1.385       .  A
C203        H206   1.082       .  S
C204        C767   1.480       .  S
C204        C205   1.385       .  A
C205        H207   1.082       .  S
N208        N209   1.322       .  A
N208        C212   1.345       .  A
N209        C210   1.345       .  A
C210        C211   1.382       .  A
C210        H213   1.082       .  S
C211       C1117   1.476       .  S
C211        C212   1.385       .  A
C212        H214   1.082       .  S
O215       Cu223   2.020   1_454  S
O215        C225   1.278       .  A
O216       Cu223   2.023       .  S
O216        C226   1.279       .  A
O217       Cu223   2.028   1_455  S
O217        C227   1.281       .  A
O218       Cu223   2.033   1_554  S
O218        C228   1.281       .  A
O219       Cu224   1.978       .  S
O219        C228   1.275       .  A
O220       Cu224   1.981   1_456  S
O220        C227   1.275       .  A
O221       Cu224   1.993   1_556  S
O221        C226   1.277       .  A
O222       Cu224   1.994   1_455  S
O222        C225   1.275       .  A
Cu223      Cu224   2.370   1_556  S
C225       C1120   1.465       .  S
C226       C1132   1.487       .  S
C227       C1108   1.485       .  S
C228       C1144   1.483       .  S
N229        N230   1.323       .  A
N229        C233   1.347       .  A
N229       Cu237   2.074       .  S
N230        C231   1.341       .  A
N230       Cu236   2.073       .  S
C231        C232   1.383       .  A
C231        H234   1.081       .  S
C232       C1093   1.478       .  S
C232        C233   1.384       .  A
C233        H235   1.082       .  S
Cu236       N239   2.072       .  S
Cu237       N247   2.074       .  S
Cu238       N240   2.070       .  S
Cu238       N246   2.071       .  S
N239        N240   1.320       .  A
N239        C243   1.345       .  A
N240        C241   1.345       .  A
C241        C242   1.385       .  A
C241        H244   1.082       .  S
C242        C792   1.478       .  S
C242        C243   1.385       .  A
C243        H245   1.082       .  S
N246        N247   1.321       .  A
N246        C250   1.340       .  A
N247        C248   1.346       .  A
C248        C249   1.391       .  A
C248        H251   1.080       .  S
C249       C1153   1.492       .  S
C249        C250   1.389       .  A
C250        H252   1.081       .  S
N253        N254   1.322       .  A
N253        C257   1.346       .  A
N253       Cu261   2.066       .  S
N254        C255   1.343       .  A
N254       Cu260   2.074       .  S
C255        C256   1.382       .  A
C255        H258   1.082       .  S
C256       C1105   1.470       .  S
C256        C257   1.381       .  A
C257        H259   1.082       .  S
Cu260       N263   2.074       .  S
Cu261       N271   2.066       .  S
Cu262       N264   2.081       .  S
Cu262       N270   2.082       .  S
N263        N264   1.322       .  A
N263        C267   1.346       .  A
N264        C265   1.346       .  A
C265        C266   1.386       .  A
C265        H268   1.082       .  S
C266        C774   1.480       .  S
C266        C267   1.384       .  A
C267        H269   1.082       .  S
N270        N271   1.323       .  A
N270        C274   1.345       .  A
N271        C272   1.345       .  A
C272        C273   1.379       .  A
C272        H275   1.082       .  S
C273       C1084   1.469       .  S
C273        C274   1.382       .  A
C274        H276   1.082       .  S
O277       Cu285   2.034       .  S
O277        C287   1.281       .  A
O278       Cu285   2.028       .  S
O278        C288   1.280       .  A
O279       Cu285   2.016       .  S
O279        C289   1.278       .  A
O280       Cu285   2.012       .  S
O280        C290   1.277       .  A
O281       Cu286   1.998       .  S
O281        C290   1.276       .  A
O282       Cu286   1.998       .  S
O282        C289   1.276       .  A
O283       Cu286   1.985       .  S
O283        C288   1.276       .  A
O284       Cu286   1.977       .  S
O284        C287   1.275       .  A
Cu285      Cu286   2.373       .  S
C287       C1096   1.486       .  S
C288       C1081   1.482       .  S
C289       C1057   1.466       .  S
C290       C1069   1.463       .  S
N291        N292   1.321       .  A
N291        C295   1.344       .  A
N291       Cu299   2.064       .  S
N292        C293   1.345       .  A
N292       Cu298   2.079       .  S
C293        C294   1.386       .  A
C293        H296   1.082       .  S
C294       C1240   1.478       .  S
C294        C295   1.383       .  A
C295        H297   1.082       .  S
Cu298       N301   2.080       .  S
Cu299       N309   2.064       .  S
Cu300       N302   2.084       .  S
Cu300       N308   2.083       .  S
N301        N302   1.323       .  A
N301        C305   1.346       .  A
N302        C303   1.347       .  A
C303        C304   1.386       .  A
C303        H306   1.082       .  S
C304        C745   1.482       .  S
C304        C305   1.385       .  A
C305        H307   1.082       .  S
N308        N309   1.323       .  A
N308        C312   1.346       .  A
N309        C310   1.344       .  A
C310        C311   1.379       .  A
C310        H313   1.082       .  S
C311       C1048   1.470       .  S
C311        C312   1.383       .  A
C312        H314   1.082       .  S
N315        N316   1.322       .  A
N315        C319   1.345       .  A
N315       Cu323   2.069       .  S
N316        C317   1.344       .  A
N316       Cu322   2.078       .  S
C317        C318   1.387       .  A
C317        H320   1.082       .  S
C318       C1072   1.484       .  S
C318        C319   1.386       .  A
C319        H321   1.081       .  S
Cu322       N325   2.078       .  S
Cu323       N333   2.068       .  S
Cu324       N326   2.077       .  S
Cu324       N332   2.077       .  S
N325        N326   1.322       .  A
N325        C329   1.346       .  A
N326        C327   1.346       .  A
C327        C328   1.385       .  A
C327        H330   1.082       .  S
C328        C803   1.480       .  S
C328        C329   1.385       .  A
C329        H331   1.082       .  S
N332        N333   1.322       .  A
N332        C336   1.343       .  A
N333        C334   1.347       .  A
C334        C335   1.382       .  A
C334        H337   1.082       .  S
C335       C1036   1.474       .  S
C335        C336   1.383       .  A
C336        H338   1.082       .  S
N339        N340   1.321       .  A
N339        C343   1.345       .  A
N339       Cu347   2.068       .  S
N340        C341   1.341       .  A
N340       Cu346   2.072       .  S
C341        C342   1.387       .  A
C341        H344   1.081       .  S
C342       C1021   1.485       .  S
C342        C343   1.387       .  A
C343        H345   1.080       .  S
Cu346       N349   2.072       .  S
Cu347       N357   2.068       .  S
Cu348       N350   2.075       .  S
Cu348       N356   2.076       .  S
N349        N350   1.321       .  A
N349        C353   1.346       .  A
N350        C351   1.345       .  A
C351        C352   1.385       .  A
C351        H354   1.082       .  S
C352        C754   1.479       .  S
C352        C353   1.385       .  A
C353        H355   1.082       .  S
N356        N357   1.320       .  A
N356        C360   1.341       .  A
N357        C358   1.346       .  A
C358        C359   1.391       .  A
C358        H361   1.079       .  S
C359       C1324   1.493       .  S
C359        C360   1.391       .  A
C360        H362   1.080       .  S
O363       Cu371   2.022   1_554  S
O363        C373   1.279       .  A
O364       Cu371   2.029   1_565  S
O364        C374   1.281       .  A
O365       Cu371   2.012   1_564  S
O365        C375   1.277       .  A
O366       Cu371   2.020       .  S
O366        C376   1.279       .  A
O367       Cu372   1.985   1_556  S
O367        C376   1.276       .  A
O368       Cu372   1.990   1_565  S
O368        C375   1.275       .  A
O369       Cu372   1.985   1_566  S
O369        C374   1.275       .  A
O370       Cu372   1.992       .  S
O370        C373   1.275       .  A
Cu371      Cu372   2.374   1_556  S
C373       C1045   1.468       .  S
C374       C1033   1.486       .  S
C375       C1024   1.462       .  S
C376       C1009   1.478       .  S
N377        N378   1.323       .  A
N377        C381   1.345       .  A
N377       Cu385   2.070       .  S
N378        C379   1.345       .  A
N378       Cu384   2.078       .  S
C379        C380   1.381       .  A
C379        H382   1.082       .  S
C380        C997   1.468       .  S
C380        C381   1.380       .  A
C381        H383   1.082       .  S
Cu384       N387   2.078       .  S
Cu385       N395   2.070       .  S
Cu386       N388   2.076       .  S
Cu386       N394   2.076       .  S
N387        N388   1.322       .  A
N387        C391   1.345       .  A
N388        C389   1.346       .  A
C389        C390   1.385       .  A
C389        H392   1.082       .  S
C390        C763   1.479       .  S
C390        C391   1.385       .  A
C391        H393   1.082       .  S
N394        N395   1.323       .  A
N394        C398   1.344       .  A
N395        C396   1.346       .  A
C396        C397   1.380       .  A
C396        H399   1.082       .  S
C397       C1216   1.468       .  S
C397        C398   1.381       .  A
C398        H400   1.082       .  S
N401        N402   1.324       .  A
N401        C405   1.346       .  A
N401       Cu409   2.074       .  S
N402        C403   1.345       .  A
N402       Cu408   2.080       .  S
C403        C404   1.382       .  A
C403        H406   1.082       .  S
C404       C1060   1.473       .  S
C404        C405   1.381       .  A
C405        H407   1.082       .  S
Cu408       N411   2.080       .  S
Cu409       N419   2.073       .  S
Cu410       N412   2.069       .  S
Cu410       N418   2.069       .  S
N411        N412   1.321       .  A
N411        C415   1.346       .  A
N412        C413   1.345       .  A
C413        C414   1.384       .  A
C413        H416   1.082       .  S
C414        C783   1.478       .  S
C414        C415   1.386       .  A
C415        H417   1.082       .  S
N418        N419   1.320       .  A
N418        C422   1.341       .  A
N419        C420   1.347       .  A
C420        C421   1.389       .  A
C420        H423   1.082       .  S
C421        C985   1.488       .  S
C421        C422   1.388       .  A
C422        H424   1.080       .  S
N425        N426   1.323       .  A
N425        C429   1.347       .  A
N425       Cu433   2.074       .  S
N426        C427   1.341       .  A
N426       Cu432   2.071       .  S
C427        C428   1.382       .  A
C427        H430   1.082       .  S
C428        C973   1.476       .  S
C428        C429   1.384       .  A
C429        H431   1.082       .  S
Cu432       N435   2.070       .  S
Cu433       N443   2.075       .  S
Cu434       N436   2.069       .  S
Cu434       N442   2.070       .  S
N435        N436   1.320       .  A
N435        C439   1.345       .  A
N436        C437   1.345       .  A
C437        C438   1.385       .  A
C437        H440   1.082       .  S
C438        C776   1.479       .  S
C438        C439   1.386       .  A
C439        H441   1.082       .  S
N442        N443   1.322       .  A
N442        C446   1.340       .  A
N443        C444   1.347       .  A
C444        C445   1.387       .  A
C444        H447   1.082       .  S
C445       C1336   1.483       .  S
C445        C446   1.385       .  A
C446        H448   1.080       .  S
O449       Cu457   2.030   1_556  S
O449        C459   1.281       .  A
O450       Cu457   2.017   1_545  S
O450        C460   1.278       .  A
O451       Cu457   2.019       .  S
O451        C461   1.279       .  A
O452       Cu457   2.022   1_546  S
O452        C462   1.278       .  A
O453       Cu458   1.990   1_556  S
O453        C462   1.275       .  A
O454       Cu458   1.996   1_565  S
O454        C461   1.276       .  A
O455       Cu458   1.989       .  S
O455        C460   1.275       .  A
O456       Cu458   1.979   1_566  S
O456        C459   1.274       .  A
Cu457      Cu458   2.375   1_565  S
C459        C976   1.486       .  S
C460        C961   1.463       .  S
C461       C1000   1.472       .  S
C462        C988   1.466       .  S
N463        N464   1.319       .  A
N463        C467   1.345       .  A
N463       Cu471   2.068       .  S
N464        C465   1.341       .  A
N464       Cu470   2.075       .  S
C465        C466   1.392       .  A
C465        H468   1.080       .  S
C466       C1312   1.495       .  S
C466        C467   1.391       .  A
C467        H469   1.079       .  S
Cu470       N473   2.074       .  S
Cu471       N481   2.068       .  S
Cu472       N474   2.079       .  S
Cu472       N480   2.080       .  S
N473        N474   1.322       .  A
N473        C477   1.346       .  A
N474        C475   1.346       .  A
C475        C476   1.385       .  A
C475        H478   1.082       .  S
C476        C801   1.478       .  S
C476        C477   1.384       .  A
C477        H479   1.082       .  S
N480        N481   1.323       .  A
N480        C484   1.345       .  A
N481        C482   1.345       .  A
C482        C483   1.379       .  A
C482        H485   1.082       .  S
C483        C949   1.468       .  S
C483        C484   1.382       .  A
C484        H486   1.082       .  S
N487        N488   1.323       .  A
N487        C491   1.344       .  A
N487       Cu495   2.068       .  S
N488        C489   1.345       .  A
N488       Cu494   2.082       .  S
C489        C490   1.385       .  A
C489        H492   1.082       .  S
C490       C1252   1.477       .  S
C490        C491   1.382       .  A
C491        H493   1.082       .  S
Cu494       N497   2.081       .  S
Cu495       N505   2.067       .  S
Cu496       N498   2.071       .  S
Cu496       N504   2.071       .  S
N497        N498   1.322       .  A
N497        C501   1.347       .  A
N498        C499   1.345       .  A
C499        C500   1.384       .  A
C499        H502   1.082       .  S
C500        C794   1.479       .  S
C500        C501   1.386       .  A
C501        H503   1.082       .  S
N504        N505   1.322       .  A
N504        C508   1.342       .  A
N505        C506   1.346       .  A
C506        C507   1.383       .  A
C506        H509   1.082       .  S
C507        C937   1.473       .  S
C507        C508   1.382       .  A
C508        H510   1.082       .  S
N511        N512   1.319       .  A
N511        C515   1.345       .  A
N511       Cu519   2.064       .  S
N512        C513   1.341       .  A
N512       Cu518   2.072       .  S
C513        C514   1.389       .  A
C513        H516   1.081       .  S
C514       C1348   1.489       .  S
C514        C515   1.389       .  A
C515        H517   1.080       .  S
Cu518       N521   2.072       .  S
Cu519       N529   2.065       .  S
Cu520       N522   2.084       .  S
Cu520       N528   2.084       .  S
N521        N522   1.322       .  A
N521        C525   1.345       .  A
N522        C523   1.347       .  A
C523        C524   1.387       .  A
C523        H526   1.082       .  S
C524        C772   1.481       .  S
C524        C525   1.384       .  A
C525        H527   1.082       .  S
N528        N529   1.323       .  A
N528        C532   1.346       .  A
N529        C530   1.344       .  A
C530        C531   1.380       .  A
C530        H533   1.082       .  S
C531        C928   1.473       .  S
C531        C532   1.384       .  A
C532        H534   1.082       .  S
O535       Cu543   2.024       .  S
O535        C545   1.280       .  A
O536       Cu543   2.018   1_465  S
O536        C546   1.278       .  A
O537       Cu543   2.033   1_565  S
O537        C547   1.281       .  A
O538       Cu543   2.027   1_455  S
O538        C548   1.280       .  A
O539       Cu544   1.984   1_445  S
O539        C548   1.275       .  A
O540       Cu544   1.981       .  S
O540        C547   1.274       .  A
O541       Cu544   1.993       .  S
O541        C546   1.275   1_655  A
O542       Cu544   1.986   1_545  S
O542        C545   1.275       .  A
Cu543      Cu544   2.372   1_545  S
C545        C940   1.485       .  S
C546        C925   1.465       .  S
C547        C952   1.478       .  S
C548        C916   1.476       .  S
N549        N550   1.323       .  A
N549        C553   1.345       .  A
N549       Cu557   2.063       .  S
N550        C551   1.343       .  A
N550       Cu556   2.075       .  S
C551        C552   1.381       .  A
C551        H554   1.082       .  S
C552       C1012   1.467       .  S
C552        C553   1.379       .  A
C553        H555   1.082       .  S
Cu556       N559   2.075       .  S
Cu557       N567   2.063       .  S
Cu558       N560   2.074       .  S
Cu558       N566   2.074       .  S
N559        N560   1.321       .  A
N559        C563   1.345       .  A
N560        C561   1.346       .  A
C561        C562   1.384       .  A
C561        H564   1.082       .  S
C562        C790   1.477       .  S
C562        C563   1.384       .  A
C563        H565   1.082       .  S
N566        N567   1.320       .  A
N566        C570   1.341       .  A
N567        C568   1.345       .  A
C568        C569   1.389       .  A
C568        H571   1.080       .  S
C569        C901   1.490       .  S
C569        C570   1.390       .  A
C570        H572   1.081       .  S
N573        N574   1.323       .  A
N573        C577   1.346       .  A
N573       Cu581   2.070       .  S
N574        C575   1.342       .  A
N574       Cu580   2.072       .  S
C575        C576   1.382       .  A
C575        H578   1.082       .  S
C576        C889   1.472       .  S
C576        C577   1.382       .  A
C577        H579   1.082       .  S
Cu580       N583   2.071       .  S
Cu581       N591   2.070       .  S
Cu582       N584   2.069       .  S
Cu582       N590   2.070       .  S
N583        N584   1.321       .  A
N583        C587   1.345       .  A
N584        C585   1.345       .  A
C585        C586   1.384       .  A
C585        H588   1.082       .  S
C586        C812   1.476       .  S
C586        C587   1.384       .  A
C587        H589   1.082       .  S
N590        N591   1.321       .  A
N590        C594   1.341       .  A
N591        C592   1.345       .  A
C592        C593   1.388       .  A
C592        H595   1.081       .  S
C593        C964   1.487       .  S
C593        C594   1.388       .  A
C594        H596   1.079       .  S
N597        N598   1.323       .  A
N597        C601   1.347       .  A
N597       Cu605   2.076       .  S
N598        C599   1.342       .  A
N598       Cu604   2.073       .  S
C599        C600   1.382       .  A
C599        H602   1.082       .  S
C600        C877   1.476       .  S
C600        C601   1.384       .  A
C601        H603   1.082       .  S
Cu604       N607   2.073       .  S
Cu605       N615   2.076       .  S
Cu606       N608   2.076       .  S
Cu606       N614   2.076       .  S
N607        N608   1.321       .  A
N607        C611   1.346       .  A
N608        C609   1.346       .  A
C609        C610   1.386       .  A
C609        H612   1.082       .  S
C610        C785   1.480       .  S
C610        C611   1.385       .  A
C611        H613   1.082       .  S
N614        N615   1.322       .  A
N614        C618   1.341       .  A
N615        C616   1.347       .  A
C616        C617   1.389       .  A
C616        H619   1.080       .  S
C617        C913   1.489       .  S
C617        C618   1.388       .  A
C618        H620   1.081       .  S
O621       Cu629   1.983       .  S
O621        C631   1.274       .  A
O622       Cu629   1.979       .  S
O622        C632   1.274       .  A
O623       Cu629   1.998       .  S
O623        C633   1.277       .  A
O624       Cu629   1.992       .  S
O624        C634   1.275       .  A
O625       Cu630   2.022       .  S
O625        C634   1.278       .  A
O626       Cu630   2.018       .  S
O626        C633   1.279       .  A
O627       Cu630   2.027       .  S
O627        C632   1.281       .  A
O628       Cu630   2.026       .  S
O628        C631   1.279       .  A
Cu629      Cu630   2.372       .  S
C631        C904   1.467       .  S
C632        C892   1.485       .  S
C633        C880   1.487       .  S
C634        C865   1.465       .  S
N635        N636   1.323       .  A
N635        C639   1.348       .  A
N635       Cu643   2.081       .  S
N636        C637   1.341       .  A
N636       Cu642   2.073       .  S
C637        C638   1.385       .  A
C637        H640   1.081       .  S
C638        C853   1.484       .  S
C638        C639   1.388       .  A
C639        H641   1.082       .  S
Cu642       N645   2.072       .  S
Cu643       N653   2.081       .  S
Cu644       N646   2.070       .  S
Cu644       N652   2.070       .  S
N645        N646   1.320       .  A
N645        C649   1.346       .  A
N646        C647   1.345       .  A
C647        C648   1.385       .  A
C647        H650   1.082       .  S
C648        C765   1.479       .  S
C648        C649   1.386       .  A
C649        H651   1.082       .  S
N652        N653   1.322       .  A
N652        C656   1.341       .  A
N653        C654   1.348       .  A
C654        C655   1.388       .  A
C654        H657   1.082       .  S
C655       C1300   1.484       .  S
C655        C656   1.385       .  A
C656        H658   1.081       .  S
N659        N660   1.322       .  A
N659        C663   1.345       .  A
N659       Cu667   2.070       .  S
N660        C661   1.344       .  A
N660       Cu666   2.077       .  S
C661        C662   1.385       .  A
C661        H664   1.081       .  S
C662        C844   1.480       .  S
C662        C663   1.384       .  A
C663        H665   1.082       .  S
Cu666       N669   2.077       .  S
Cu667       N677   2.070       .  S
Cu668       N670   2.072       .  S
Cu668       N676   2.073       .  S
N669        N670   1.322       .  A
N669        C673   1.345       .  A
N670        C671   1.346       .  A
C671        C672   1.384       .  A
C671        H674   1.082       .  S
C672        C758   1.477       .  S
C672        C673   1.385       .  A
C673        H675   1.082       .  S
N676        N677   1.322       .  A
N676        C680   1.343       .  A
N677        C678   1.346       .  A
C678        C679   1.382       .  A
C678        H681   1.082       .  S
C679       C1264   1.472       .  S
C679        C680   1.382       .  A
C680        H682   1.082       .  S
N683        N684   1.321       .  A
N683        C687   1.345       .  A
N683       Cu691   2.068       .  S
N684        C685   1.343       .  A
N684       Cu690   2.075       .  S
C685        C686   1.386       .  A
C685        H688   1.081       .  S
C686        C868   1.482       .  S
C686        C687   1.385       .  A
C687        H689   1.082       .  S
Cu690       N693   2.075       .  S
Cu691       N701   2.068       .  S
Cu692       N694   2.082       .  S
Cu692       N700   2.082       .  S
N693        N694   1.322       .  A
N693        C697   1.346       .  A
N694        C695   1.346       .  A
C695        C696   1.386       .  A
C695        H698   1.082       .  S
C696        C749   1.480       .  S
C696        C697   1.385       .  A
C697        H699   1.082       .  S
N700        N701   1.323       .  A
N700        C704   1.346       .  A
N701        C702   1.345       .  A
C702        C703   1.381       .  A
C702        H705   1.082       .  S
C703        C832   1.473       .  S
C703        C704   1.383       .  A
C704        H706   1.082       .  S
N707        N708   1.323       .  A
N707        C711   1.346       .  A
N707       Cu715   2.069       .  S
N708        C709   1.342       .  A
N708       Cu714   2.074       .  S
C709        C710   1.381       .  A
C709        H712   1.082       .  S
C710       C1357   1.470       .  S
C710        C711   1.381       .  A
C711        H713   1.082       .  S
Cu714       N717   2.073       .  S
Cu715       N725   2.069       .  S
Cu716       N718   2.072       .  S
Cu716       N724   2.072       .  S
N717        N718   1.321       .  A
N717        C721   1.346       .  A
N718        C719   1.345       .  A
C719        C720   1.385       .  A
C719        H722   1.082       .  S
C720        C808   1.478       .  S
C720        C721   1.385       .  A
C721        H723   1.082       .  S
N724        N725   1.322       .  A
N724        C728   1.342       .  A
N725        C726   1.346       .  A
C726        C727   1.386       .  A
C726        H729   1.081       .  S
C727        C817   1.481       .  S
C727        C728   1.385       .  A
C728        H730   1.082       .  S
O731       Cu739   2.015   1_455  S
O731        C741   1.279       .  A
O732       Cu739   2.027   1_565  S
O732        C742   1.279       .  A
O733       Cu739   2.019   1_465  S
O733        C743   1.278       .  A
O734       Cu739   2.016       .  S
O734        C744   1.278       .  A
O735       Cu740   2.001   1_545  S
O735        C744   1.276       .  A
O736       Cu740   1.997   1_455  S
O736        C743   1.276       .  A
O737       Cu740   1.985       .  S
O737        C742   1.274       .  A
O738       Cu740   1.993   1_545  S
O738        C741   1.276   1_655  A
Cu739      Cu740   2.377   1_545  S
C741        C820   1.480       .  S
C742        C841   1.464       .  S
C743        C856   1.466       .  S
C744        C829   1.468       .  S
C745        C746   1.406       .  A
C745        C750   1.405       .  A
C746        C747   1.406       .  A
C746        H751   1.083       .  S
C747        C748   1.405       .  A
C748        C749   1.404       .  A
C748        H752   1.083       .  S
C749        C750   1.405       .  A
C750        H753   1.083       .  S
C754        C755   1.405       .  A
C754        C759   1.403       .  A
C755        C756   1.405       .  A
C755        H760   1.083       .  S
C756        C757   1.405       .  A
C757        C758   1.405       .  A
C757        H761   1.084       .  S
C758        C759   1.403       .  A
C759        H762   1.084       .  S
C763        C764   1.403       .  A
C763        C768   1.405       .  A
C764        C765   1.404       .  A
C764        H769   1.083       .  S
C765        C766   1.405       .  A
C766        C767   1.405       .  A
C766        H770   1.083       .  S
C767        C768   1.406       .  A
C768        H771   1.083       .  S
C772        C773   1.406       .  A
C772        C777   1.404       .  A
C773        C774   1.405       .  A
C773        H778   1.083       .  S
C774        C775   1.404       .  A
C775        C776   1.405       .  A
C775        H779   1.083       .  S
C776        C777   1.405       .  A
C777        H780   1.083       .  S
C781        C782   1.403       .  A
C781        C786   1.404       .  A
C782        C783   1.403       .  A
C782        H787   1.084       .  S
C783        C784   1.406       .  A
C784        C785   1.406       .  A
C784        H788   1.083       .  S
C785        C786   1.405       .  A
C786        H789   1.083       .  S
C790        C791   1.403       .  A
C790        C795   1.404       .  A
C791        C792   1.404       .  A
C791        H796   1.084       .  S
C792        C793   1.405       .  A
C793        C794   1.404       .  A
C793        H797   1.083       .  S
C794        C795   1.405       .  A
C795        H798   1.084       .  S
C799        C800   1.404       .  A
C799        C804   1.406       .  A
C800        C801   1.404       .  A
C800        H805   1.083       .  S
C801        C802   1.405       .  A
C802        C803   1.405       .  A
C802        H806   1.084       .  S
C803        C804   1.405       .  A
C804        H807   1.083       .  S
C808        C809   1.405       .  A
C808        C813   1.404       .  A
C809        C810   1.405       .  A
C809        H814   1.084       .  S
C810        C811   1.403       .  A
C811        C812   1.404       .  A
C811        H815   1.084       .  S
C812        C813   1.403       .  A
C813        H816   1.084       .  S
C817        C818   1.403       .  A
C817        C822   1.411       .  A
C818        C819   1.395       .  A
C818        H823   1.083       .  S
C819        C820   1.410       .  A
C819        O824   1.372       .  S
C820        C821   1.405       .  A
C821        C822   1.404       .  A
C821        H825   1.083       .  S
C822        O826   1.371       .  S
O824        H828   0.992       .  S
O826        H827   0.992       .  S
C829        C830   1.402       .  A
C829        C834   1.406       .  A
C830        C831   1.400       .  A
C830        H835   1.084       .  S
C831        C832   1.408       .  A
C831        O836   1.372       .  S
C832        C833   1.403       .  A
C833        C834   1.400       .  A
C833        H837   1.084       .  S
C834        O838   1.371       .  S
O836        H840   0.992       .  S
O838        H839   0.992       .  S
C841        C842   1.399       .  A
C841        C846   1.404       .  A
C842        C843   1.401       .  A
C842        H847   1.084       .  S
C843        C844   1.411       .  A
C843        O848   1.372       .  S
C844        C845   1.405       .  A
C845        C846   1.399       .  A
C845        H849   1.083       .  S
C846        O850   1.371       .  S
O848        H852   0.992       .  S
O850        H851   0.992       .  S
C853        C854   1.408       .  A
C853        C858   1.412       .  A
C854        C855   1.403       .  A
C854        H859   1.083       .  S
C855        C856   1.405       .  A
C855        O860   1.372   1_565  S
C856        C857   1.397       .  A
C857        C858   1.398       .  A
C857        H861   1.083       .  S
C858        O862   1.372       .  S
O860        H864   0.992       .  S
O862        H863   0.992       .  S
C865        C866   1.398       .  A
C865        C870   1.404       .  A
C866        C867   1.399       .  A
C866        H871   1.084       .  S
C867        C868   1.411       .  A
C867        O872   1.372       .  S
C868        C869   1.407       .  A
C869        C870   1.401       .  A
C869        H873   1.083       .  S
C870        O874   1.370       .  S
O872        H876   0.992       .  S
O874        H875   0.992       .  S
C877        C878   1.400       .  A
C877        C882   1.407       .  A
C878        C879   1.397       .  A
C878        H883   1.084       .  S
C879        C880   1.414       .  A
C879        O884   1.372       .  S
C880        C881   1.409       .  A
C881        C882   1.404       .  A
C881        H885   1.083       .  S
C882        O886   1.371       .  S
O884        H888   0.992       .  S
O886        H887   0.992       .  S
C889        C890   1.398       .  A
C889        C894   1.407       .  A
C890        C891   1.394       .  A
C890        H895   1.084       .  S
C891        C892   1.416       .  A
C891        O896   1.372       .  S
C892        C893   1.408       .  A
C893        C894   1.404       .  A
C893        H897   1.083       .  S
C894        O898   1.371       .  S
O896        H900   0.992       .  S
O898        H899   0.992       .  S
C901        C902   1.406       .  A
C901        C906   1.417       .  A
C902        C903   1.394       .  A
C902        H907   1.081       .  S
C903        C904   1.402       .  A
C903        O908   1.372       .  S
C904        C905   1.400       .  A
C905        C906   1.405       .  A
C905        H909   1.084       .  S
C906        O910   1.370       .  S
O908        H912   0.991       .  S
O910        H911   0.992       .  S
C913        C914   1.404       .  A
C913        C918   1.415       .  A
C914        C915   1.394       .  A
C914        H919   1.082       .  S
C915        C916   1.407       .  A
C915        O920   1.373       .  S
C916        C917   1.403       .  A
C917        C918   1.407       .  A
C917        H921   1.084       .  S
C918        O922   1.371       .  S
O920        H924   0.992       .  S
O922        H923   0.992       .  S
C925        C926   1.401       .  A
C925        C930   1.405       .  A
C926        C927   1.400       .  A
C926        H931   1.084   1_455  S
C927        C928   1.409       .  A
C927        O932   1.372       .  S
C928        C929   1.403       .  A
C929        C930   1.400       .  A
C929        H933   1.084       .  S
C930        O934   1.372       .  S
O932        H936   0.992   1_455  S
O934        H935   0.992       .  S
C937        C938   1.399       .  A
C937        C942   1.407       .  A
C938        C939   1.395       .  A
C938        H943   1.084       .  S
C939        C940   1.414       .  A
C939        O944   1.372       .  S
C940        C941   1.408       .  A
C941        C942   1.403       .  A
C941        H945   1.083       .  S
C942        O946   1.371       .  S
O944        H948   0.992       .  S
O946        H947   0.992       .  S
C949        C950   1.397       .  A
C949        C954   1.406       .  A
C950        C951   1.397       .  A
C950        H955   1.084       .  S
C951        C952   1.412       .  A
C951        O956   1.373       .  S
C952        C953   1.405       .  A
C953        C954   1.403       .  A
C953        H957   1.083       .  S
C954        O958   1.371       .  S
O956        H960   0.992       .  S
O958        H959   0.992       .  S
C961        C962   1.397       .  A
C961        C966   1.403       .  A
C962        C963   1.397       .  A
C962        H967   1.084       .  S
C963        C964   1.414       .  A
C963        O968   1.371       .  S
C964        C965   1.410       .  A
C965        C966   1.402       .  A
C965        H969   1.082       .  S
C966        O970   1.371       .  S
O968        H972   0.992       .  S
O970        H971   0.992       .  S
C973        C974   1.399       .  A
C973        C978   1.407       .  A
C974        C975   1.393       .  A
C974        H979   1.084       .  S
C975        C976   1.415       .  A
C975        O980   1.372       .  S
C976        C977   1.408       .  A
C977        C978   1.405       .  A
C977        H981   1.083       .  S
C978        O982   1.371       .  S
O980        H984   0.992       .  S
O982        H983   0.992       .  S
C985        C986   1.410       .  A
C985        C990   1.413       .  A
C986        C987   1.404       .  A
C986        H991   1.082       .  S
C987        C988   1.404       .  A
C987        O992   1.371       .  S
C988        C989   1.397       .  A
C989        C990   1.397       .  A
C989        H993   1.084       .  S
C990        O994   1.371       .  S
O992        H996   0.992       .  S
O994        H995   0.992       .  S
C997        C998   1.402       .  A
C997       C1002   1.404       .  A
C998        C999   1.402       .  A
C998       H1003   1.084       .  S
C999       C1000   1.408       .  A
C999       O1004   1.371       .  S
C1000      C1001   1.404       .  A
C1001      C1002   1.398       .  A
C1001      H1005   1.084       .  S
C1002      O1006   1.372       .  S
O1004      H1008   0.992       .  S
O1006      H1007   0.992       .  S
C1009      C1010   1.406       .  A
C1009      C1014   1.412       .  A
C1010      C1011   1.394       .  A
C1010      H1015   1.084       .  S
C1011      C1012   1.403       .  A
C1011      O1016   1.372       .  S
C1012      C1013   1.402       .  A
C1013      C1014   1.403       .  A
C1013      H1017   1.084       .  S
C1014      O1018   1.371       .  S
O1016      H1020   0.992       .  S
O1018      H1019   0.992       .  S
C1021      C1022   1.406       .  A
C1021      C1026   1.415       .  A
C1022      C1023   1.394       .  A
C1022      H1027   1.082       .  S
C1023      C1024   1.402       .  A
C1023      O1028   1.373       .  S
C1024      C1025   1.399       .  A
C1025      C1026   1.403       .  A
C1025      H1029   1.084       .  S
C1026      O1030   1.371       .  S
O1028      H1032   0.992       .  S
O1030      H1031   0.992       .  S
C1033      C1034   1.408       .  A
C1033      C1038   1.415       .  A
C1034      C1035   1.404       .  A
C1034      H1039   1.083       .  S
C1035      C1036   1.407       .  A
C1035      O1040   1.371       .  S
C1036      C1037   1.398       .  A
C1037      C1038   1.396       .  A
C1037      H1041   1.084       .  S
C1038      O1042   1.372       .  S
O1040      H1044   0.992       .  S
O1042      H1043   0.992       .  S
C1045      C1046   1.402       .  A
C1045      C1050   1.406       .  A
C1046      C1047   1.399       .  A
C1046      H1051   1.084       .  S
C1047      C1048   1.406       .  A
C1047      O1052   1.372       .  S
C1048      C1049   1.402       .  A
C1049      C1050   1.401       .  A
C1049      H1053   1.084       .  S
C1050      O1054   1.371       .  S
O1052      H1056   0.992       .  S
O1054      H1055   0.992       .  S
C1057      C1058   1.401       .  A
C1057      C1062   1.406       .  A
C1058      C1059   1.400       .  A
C1058      H1063   1.084       .  S
C1059      C1060   1.408       .  A
C1059      O1064   1.372       .  S
C1060      C1061   1.403       .  A
C1061      C1062   1.400       .  A
C1061      H1065   1.084       .  S
C1062      O1066   1.372       .  S
O1064      H1068   0.992       .  S
O1066      H1067   0.992       .  S
C1069      C1070   1.399       .  A
C1069      C1074   1.403       .  A
C1070      C1071   1.402       .  A
C1070      H1075   1.084       .  S
C1071      C1072   1.414       .  A
C1071      O1076   1.371       .  S
C1072      C1073   1.406       .  A
C1073      C1074   1.397       .  A
C1073      H1077   1.083       .  S
C1074      O1078   1.372       .  S
O1076      H1080   0.992       .  S
O1078      H1079   0.992       .  S
C1081      C1082   1.407       .  A
C1081      C1086   1.412       .  A
C1082      C1083   1.394       .  A
C1082      H1087   1.084       .  S
C1083      C1084   1.402       .  A
C1083      O1088   1.372       .  S
C1084      C1085   1.402       .  A
C1085      C1086   1.405       .  A
C1085      H1089   1.084       .  S
C1086      O1090   1.371       .  S
O1088      H1092   0.992       .  S
O1090      H1091   0.992       .  S
C1093      C1094   1.405       .  A
C1093      C1098   1.406       .  A
C1094      C1095   1.406       .  A
C1094      H1099   1.083       .  S
C1095      C1096   1.412       .  A
C1095      O1100   1.371       .  S
C1096      C1097   1.407       .  A
C1097      C1098   1.394       .  A
C1097      H1101   1.083       .  S
C1098      O1102   1.373       .  S
O1100      H1104   0.992       .  S
O1102      H1103   0.992       .  S
C1105      C1106   1.397       .  A
C1105      C1110   1.406       .  A
C1106      C1107   1.395       .  A
C1106      H1111   1.084       .  S
C1107      C1108   1.416       .  A
C1107      O1112   1.372       .  S
C1108      C1109   1.408       .  A
C1109      C1110   1.404       .  A
C1109      H1113   1.083       .  S
C1110      O1114   1.371       .  S
O1112      H1116   0.992       .  S
O1114      H1115   0.992       .  S
C1117      C1118   1.405       .  A
C1117      C1122   1.408       .  A
C1118      C1119   1.401       .  A
C1118      H1123   1.084       .  S
C1119      C1120   1.405       .  A
C1119      O1124   1.372   1_455  S
C1120      C1121   1.400       .  A
C1121      C1122   1.400       .  A
C1121      H1125   1.084       .  S
C1122      O1126   1.372       .  S
O1124      H1128   0.992       .  S
O1126      H1127   0.992       .  S
C1129      C1130   1.405       .  A
C1129      C1134   1.407       .  A
C1130      C1131   1.405       .  A
C1130      H1135   1.083       .  S
C1131      C1132   1.413       .  A
C1131      O1136   1.371       .  S
C1132      C1133   1.406       .  A
C1133      C1134   1.396       .  A
C1133      H1137   1.083       .  S
C1134      O1138   1.372       .  S
O1136      H1140   0.992       .  S
O1138      H1139   0.992       .  S
C1141      C1142   1.403       .  A
C1141      C1146   1.403       .  A
C1142      C1143   1.405       .  A
C1142      H1147   1.084       .  S
C1143      C1144   1.412       .  A
C1143      O1148   1.371       .  S
C1144      C1145   1.407       .  A
C1145      C1146   1.394       .  A
C1145      H1149   1.084       .  S
C1146      O1150   1.372       .  S
O1148      H1152   0.992       .  S
O1150      H1151   0.992       .  S
C1153      C1154   1.407       .  A
C1153      C1158   1.416       .  A
C1154      C1155   1.394       .  A
C1154      H1159   1.081       .  S
C1155      C1156   1.405       .  A
C1155      O1160   1.373       .  S
C1156      C1157   1.402       .  A
C1157      C1158   1.405       .  A
C1157      H1161   1.084       .  S
C1158      O1162   1.370       .  S
O1160      H1164   0.992       .  S
O1162      H1163   0.992       .  S
C1165      C1166   1.403       .  A
C1165      C1170   1.407       .  A
C1166      C1167   1.401       .  A
C1166      H1171   1.084       .  S
C1167      C1168   1.405       .  A
C1167      O1172   1.371       .  S
C1168      C1169   1.402       .  A
C1169      C1170   1.400       .  A
C1169      H1173   1.084       .  S
C1170      O1174   1.372       .  S
O1172      H1176   0.992       .  S
O1174      H1175   0.992       .  S
C1177      C1178   1.398       .  A
C1177      C1182   1.404       .  A
C1178      C1179   1.400       .  A
C1178      H1183   1.084       .  S
C1179      C1180   1.412       .  A
C1179      O1184   1.372       .  S
C1180      C1181   1.407       .  A
C1181      C1182   1.401       .  A
C1181      H1185   1.083       .  S
C1182      O1186   1.372   1_455  S
O1184      H1188   0.992       .  S
O1186      H1187   0.992       .  S
C1189      C1190   1.397       .  A
C1189      C1194   1.403       .  A
C1190      C1191   1.396       .  A
C1190      H1195   1.084       .  S
C1191      C1192   1.413       .  A
C1191      O1196   1.372       .  S
C1192      C1193   1.410       .  A
C1193      C1194   1.403       .  A
C1193      H1197   1.083       .  S
C1194      O1198   1.371       .  S
O1196      H1200   0.992       .  S
O1198      H1199   0.992       .  S
C1201      C1202   1.400       .  A
C1201      C1206   1.402       .  A
C1202      C1203   1.403       .  A
C1202      H1207   1.084       .  S
C1203      C1204   1.414       .  A
C1203      O1208   1.371       .  S
C1204      C1205   1.405       .  A
C1205      C1206   1.395       .  A
C1205      H1209   1.083       .  S
C1206      O1210   1.371       .  S
O1208      H1212   0.992       .  S
O1210      H1211   0.992       .  S
C1213      C1214   1.405       .  A
C1213      C1218   1.411       .  A
C1214      C1215   1.397       .  A
C1214      H1219   1.084       .  S
C1215      C1216   1.404       .  A
C1215      O1220   1.372       .  S
C1216      C1217   1.402       .  A
C1217      C1218   1.403       .  A
C1217      H1221   1.084       .  S
C1218      O1222   1.372       .  S
O1220      H1224   0.992       .  S
O1222      H1223   0.992       .  S
C1225      C1226   1.401       .  A
C1225      C1230   1.410       .  A
C1226      C1227   1.394       .  A
C1226      H1231   1.083       .  S
C1227      C1228   1.412       .  A
C1227      O1232   1.372       .  S
C1228      C1229   1.406       .  A
C1229      C1230   1.405       .  A
C1229      H1233   1.083       .  S
C1230      O1234   1.371       .  S
O1232      H1236   0.992       .  S
O1234      H1235   0.992       .  S
C1237      C1238   1.400       .  A
C1237      C1242   1.404       .  A
C1238      C1239   1.401       .  A
C1238      H1243   1.082       .  S
C1239      C1240   1.411       .  A
C1239      O1244   1.372       .  S
C1240      C1241   1.404       .  A
C1241      C1242   1.399       .  A
C1241      H1245   1.083       .  S
C1242      O1246   1.372       .  S
O1244      H1248   0.992       .  S
O1246      H1247   0.992       .  S
C1249      C1250   1.400       .  A
C1249      C1254   1.404       .  A
C1250      C1251   1.400       .  A
C1250      H1255   1.084       .  S
C1251      C1252   1.410       .  A
C1251      O1256   1.371       .  S
C1252      C1253   1.404       .  A
C1253      C1254   1.399       .  A
C1253      H1257   1.084       .  S
C1254      O1258   1.371       .  S
O1256      H1260   0.992       .  S
O1258      H1259   0.992       .  S
C1261      C1262   1.407       .  A
C1261      C1266   1.414       .  A
C1262      C1263   1.396       .  A
C1262      H1267   1.083       .  S
C1263      C1264   1.404       .  A
C1263      O1268   1.372       .  S
C1264      C1265   1.402       .  A
C1265      C1266   1.403       .  A
C1265      H1269   1.084       .  S
C1266      O1270   1.371       .  S
O1268      H1272   0.992       .  S
O1270      H1271   0.992       .  S
C1273      C1274   1.402       .  A
C1273      C1278   1.408       .  A
C1274      C1275   1.401       .  A
C1274      H1279   1.084       .  S
C1275      C1276   1.407       .  A
C1275      O1280   1.371       .  S
C1276      C1277   1.402       .  A
C1277      C1278   1.401       .  A
C1277      H1281   1.084       .  S
C1278      O1282   1.372       .  S
O1280      H1284   0.992       .  S
O1282      H1283   0.992       .  S
C1285      C1286   1.403       .  A
C1285      C1290   1.409       .  A
C1286      C1287   1.402       .  A
C1286      H1291   1.084       .  S
C1287      C1288   1.406       .  A
C1287      O1292   1.371       .  S
C1288      C1289   1.401       .  A
C1289      C1290   1.400       .  A
C1289      H1293   1.084       .  S
C1290      O1294   1.372       .  S
O1292      H1296   0.992       .  S
O1294      H1295   0.991       .  S
C1297      C1298   1.404       .  A
C1297      C1302   1.411       .  A
C1298      C1299   1.395       .  A
C1298      H1303   1.084       .  S
C1299      C1300   1.410       .  A
C1299      O1304   1.372       .  S
C1300      C1301   1.407       .  A
C1301      C1302   1.406       .  A
C1301      H1305   1.083       .  S
C1302      O1306   1.371       .  S
O1304      H1308   0.992       .  S
O1306      H1307   0.992       .  S
C1309      C1310   1.399       .  A
C1309      C1314   1.402       .  A
C1310      C1311   1.405       .  A
C1310      H1315   1.084       .  S
C1311      C1312   1.419       .  A
C1311      O1316   1.370       .  S
C1312      C1313   1.408       .  A
C1313      C1314   1.395       .  A
C1313      H1317   1.081       .  S
C1314      O1318   1.373       .  S
O1316      H1320   0.992       .  S
O1318      H1319   0.992       .  S
C1321      C1322   1.402       .  A
C1321      C1326   1.406       .  A
C1322      C1323   1.407       .  A
C1322      H1327   1.084       .  S
C1323      C1324   1.418       .  A
C1323      O1328   1.370       .  S
C1324      C1325   1.406       .  A
C1325      C1326   1.393       .  A
C1325      H1329   1.080       .  S
C1326      O1330   1.373       .  S
O1328      H1332   0.992       .  S
O1330      H1331   0.992       .  S
C1333      C1334   1.403       .  A
C1333      C1338   1.409       .  A
C1334      C1335   1.393       .  A
C1334      H1339   1.084       .  S
C1335      C1336   1.409       .  A
C1335      O1340   1.372       .  S
C1336      C1337   1.408       .  A
C1337      C1338   1.406       .  A
C1337      H1341   1.083       .  S
C1338      O1342   1.371       .  S
O1340      H1344   0.992       .  S
O1342      H1343   0.992       .  S
C1345      C1346   1.403       .  A
C1345      C1350   1.408       .  A
C1346      C1347   1.406       .  A
C1346      H1351   1.084       .  S
C1347      C1348   1.415       .  A
C1347      O1352   1.371       .  S
C1348      C1349   1.404       .  A
C1349      C1350   1.393       .  A
C1349      H1353   1.081       .  S
C1350      O1354   1.373       .  S
O1352      H1356   0.992       .  S
O1354      H1355   0.992       .  S
C1357      C1358   1.403       .  A
C1357      C1362   1.403       .  A
C1358      C1359   1.404       .  A
C1358      H1363   1.084       .  S
C1359      C1360   1.412       .  A
C1359      O1364   1.371       .  S
C1360      C1361   1.407       .  A
C1361      C1362   1.394       .  A
C1361      H1365   1.083       .  S
C1362      O1366   1.372       .  S
O1364      H1368   0.992       .  S
O1366      H1367   0.992       .  S
C1369      C1370   1.403       .  A
C1369      C1374   1.408       .  A
C1370      C1371   1.400       .  A
C1370      H1375   1.084       .  S
C1371      C1372   1.405       .  A
C1371      O1376   1.372       .  S
C1372      C1373   1.401       .  A
C1373      C1374   1.401       .  A
C1373      H1377   1.084       .  S
C1374      O1378   1.372       .  S
O1376      H1380   0.992       .  S
O1378      H1379   0.992       .  S
C1381      C1382   1.401       .  A
C1381      C1386   1.404       .  A
C1382      C1383   1.403       .  A
C1382      H1387   1.084       .  S
C1383      C1384   1.411       .  A
C1383      O1388   1.371       .  S
C1384      C1385   1.406       .  A
C1385      C1386   1.396       .  A
C1385      H1389   1.084       .  S
C1386      O1390   1.372       .  S
O1388      H1392   0.992       .  S
O1390      H1391   0.992       .  S
