geometry optimzed in LAMMPS
_audit_creation_date              2020-11-30 
_audit_creation_method            'lammps2cif' 
_symmetry_space_group_name_H-M    'P1' 
_symmetry_Int_Tables_number       1 
_symmetry_cell_setting            triclinic 
loop_ 
_symmetry_equiv_pos_as_xyz 
  x,y,z 
_cell_length_a                    42.85817384185072 
_cell_length_b                    43.02070083671751 
_cell_length_c                    43.04162063738829 
_cell_angle_alpha                 90.13796456826256 
_cell_angle_beta                  89.59274421573694 
_cell_angle_gamma                 89.89458733894651 
loop_ 
_atom_site_label 
_atom_site_type_symbol 
_atom_site_fract_x 
_atom_site_fract_y 
_atom_site_fract_z 
_atom_site_charge 
Fe1        Fe  0.25193872  0.11884879  0.38262009     1.65780
Fe2        Fe  0.22858142  0.14939648  0.31551466     1.73250
Fe3        Fe  0.27625651  0.19001595  0.36069249     1.54420
O4          O  0.27132223  0.18403677  0.40710563    -0.82230
O5          O  0.26936498  0.15359609  0.29033125    -0.80540
O6          O  0.23526246  0.14990404  0.41645847    -0.84740
O7          O  0.30112927  0.12470626  0.39344247    -0.79590
O8          O  0.23614380  0.21709847  0.35642270    -0.81370
O9          O  0.23087782  0.10223033  0.31667929    -0.84110
C10         C  0.32281232  0.14194169  0.38152065     0.96650
C11         C  0.24510042  0.17773901  0.41818775     1.04090
O12         O  0.25243791  0.15283699  0.35308741    -1.13090
O13         O  0.18837660  0.14710851  0.34035785    -0.75530
O14         O  0.20222736  0.11086179  0.37481894    -0.79010
O15         O  0.31636249  0.16540281  0.36482998    -0.79700
C16         C  0.18113894  0.12716583  0.36073857     0.95560
O17         O  0.26893378  0.08944073  0.34679491    -0.77660
O18         O  0.22183290  0.19549216  0.31168492    -0.82850
C19         C  0.28745813  0.17704173  0.29203272     0.98180
C20         C  0.22130990  0.21767531  0.33089376     1.04100
O21         O  0.28607539  0.19626479  0.31441562    -0.78500
C22         C  0.25730794  0.09030309  0.31969419     1.02400
Fe23       Fe  0.39814879  0.26497160  0.09471098     1.65780
Fe24       Fe  0.32760392  0.23904223  0.11768810     1.73250
Fe25       Fe  0.36567811  0.29095106  0.16063845     1.54410
O26         O  0.41338784  0.28948959  0.16111766    -0.82230
O27         O  0.29959957  0.27833888  0.11900372    -0.80540
O28         O  0.42811971  0.25151564  0.13079992    -0.84740
O29         O  0.40549425  0.31521058  0.10061480    -0.79590
O30         O  0.36223503  0.25215444  0.18813011    -0.81370
O31         O  0.33269956  0.24103791  0.07074103    -0.84110
C32         C  0.38891344  0.33667237  0.11412082     0.96650
C33         C  0.42700540  0.26383514  0.15771062     1.04090
O34         O  0.36392969  0.26467430  0.12429321    -1.13090
O35         O  0.35370262  0.19962292  0.11545549    -0.75530
O36         O  0.39395296  0.21521317  0.08607811    -0.79010
O37         O  0.36782292  0.32958894  0.13364522    -0.79700
C38         C  0.37761377  0.19340602  0.09892646     0.95560
O39         O  0.36627179  0.27775123  0.06042696    -0.77660
O40         O  0.32073618  0.23199643  0.16467504    -0.82850
C41         C  0.29773306  0.29592779  0.14274449     0.98180
C42         C  0.34011303  0.23245535  0.18689835     1.04100
O43         O  0.31868561  0.29681657  0.16326513    -0.78500
C44         C  0.33922835  0.26596581  0.05717463     1.02400
Fe45       Fe  0.10714468  0.40948235  0.23991973     1.65780
Fe46       Fe  0.13305747  0.33984518  0.21723335     1.73250
Fe47       Fe  0.17371976  0.38008906  0.26914324     1.54420
O48         O  0.17916185  0.42665779  0.26395057    -0.82230
O49         O  0.12797827  0.31342925  0.25721048    -0.80540
O50         O  0.14200951  0.44163689  0.23195454    -0.84740
O51         O  0.10675922  0.41540688  0.28991543    -0.79590
O52         O  0.20235149  0.37264980  0.23024414    -0.81370
O53         O  0.08661359  0.34693969  0.21086115    -0.84110
C54         C  0.12246760  0.40318760  0.31237215     0.96650
C55         C  0.16967260  0.44357810  0.24212197     1.04090
O56         O  0.13767607  0.37684843  0.24269256    -1.13090
O57         O  0.13978343  0.36584139  0.17830274    -0.75530
O58         O  0.10685849  0.40509108  0.18929736    -0.79010
O59         O  0.14734392  0.38787379  0.30783139    -0.79700
C60         C  0.12487634  0.38999559  0.17007305     0.95560
O61         O  0.07158683  0.37747199  0.24802214    -0.77660
O62         O  0.17910855  0.32906210  0.21834570    -0.82850
C63         C  0.15103524  0.31196005  0.27580455     0.98180
C64         C  0.20096253  0.34802273  0.21395199     1.04100
O65         O  0.17066909  0.33385560  0.27909873    -0.78500
C66         C  0.06933445  0.35175701  0.23375314     1.02400
Fe67       Fe  0.49870341  0.09244350  0.30474338     1.65780
Fe68       Fe  0.49874355  0.13617628  0.24034261     1.73250
Fe69       Fe  0.49866273  0.17124260  0.31086465     1.54410
O70         O  0.46990202  0.15267807  0.34554716    -0.82230
O71         O  0.53883882  0.16052654  0.24415388    -0.80540
O72         O  0.45979581  0.10386082  0.33279217    -0.84740
O73         O  0.53241808  0.10551402  0.33829268    -0.79590
O74         O  0.45955413  0.18992153  0.28967270    -0.81370
O75         O  0.52426682  0.09754913  0.23095934    -0.84110
C76         C  0.54807574  0.13044770  0.34292907     0.96650
C77         C  0.45242851  0.12882898  0.34715795     1.04090
O78         O  0.49779543  0.13307537  0.28543341    -1.13090
O79         O  0.45924961  0.11068693  0.23496809    -0.75530
O80         O  0.46723393  0.07506544  0.27210706    -0.79010
O81         O  0.53898539  0.15644926  0.33233030    -0.79700
C82         C  0.45387933  0.08458511  0.24740743     0.95560
O83         O  0.53607812  0.07753727  0.27689406    -0.77660
O84         O  0.47300208  0.17553041  0.24169754    -0.82850
C85         C  0.53735689  0.18846488  0.25282255     0.98180
C86         C  0.45801053  0.19275421  0.26033428     1.04100
O87         O  0.52493265  0.19624062  0.27855391    -0.78500
C88         C  0.53955867  0.07907313  0.24745395     1.02400
Fe89       Fe  0.50522644  0.94409739  0.30376907     1.65780
Fe90       Fe  0.50491682  0.90362361  0.23810145     1.73250
Fe91       Fe  0.50582781  0.86408121  0.30634856     1.54410
O92         O  0.54219747  0.87972835  0.33472746    -0.82230
O93         O  0.46370264  0.88027500  0.24212605    -0.80540
O94         O  0.54360861  0.93151663  0.33132141    -0.84740
O95         O  0.47147522  0.93148218  0.33670995    -0.79590
O96         O  0.53802569  0.84026196  0.27813148    -0.81370
O97         O  0.48172076  0.94360338  0.23046588    -0.84110
C98         C  0.45852218  0.90595047  0.34399773     0.96650
C99         C  0.55543040  0.90573862  0.34029851     1.04090
O100        O  0.50617273  0.90374743  0.28304918    -1.13090
O101        O  0.54583056  0.92695815  0.23410709    -0.75530
O102        O  0.53739494  0.96189961  0.27199182    -0.79010
O103        O  0.47014307  0.88004161  0.33537816    -0.79700
C104        C  0.55160340  0.95246369  0.24757248     0.95560
O105        O  0.46739076  0.95992476  0.27699563    -0.77660
O106        O  0.52713346  0.86381699  0.23421873    -0.82850
C107        C  0.46070777  0.85266181  0.25234601     0.98180
C108        C  0.53641113  0.84049011  0.24862198     1.04100
O109        O  0.47240926  0.84407672  0.27800073    -0.78500
C110        C  0.46448517  0.95976424  0.24752116     1.02400
Fe111      Fe  0.42638516  0.01825752  0.17384277     1.65780
Fe112      Fe  0.38175241  0.01737231  0.23825346     1.73250
Fe113      Fe  0.34729379  0.01861751  0.16770867     1.54410
O114        O  0.36643636  0.04586733  0.13214602    -0.82230
O115        O  0.35662481  0.97810035  0.23210420    -0.80540
O116        O  0.41483876  0.05630018  0.14576150    -0.84740
O117        O  0.41291068  0.98353511  0.14063250    -0.79590
O118        O  0.33103340  0.05906627  0.18838170    -0.81370
O119        O  0.42016051  0.99135493  0.24789309    -0.84110
C120        C  0.38758473  0.96841660  0.13525459     0.96650
C121        C  0.39019745  0.06351605  0.13110851     1.04090
O122        O  0.38558003  0.01884638  0.19319843    -1.13090
O123        O  0.40793154  0.05605491  0.24501981    -0.75530
O124        O  0.44282320  0.05086549  0.20607566    -0.79010
O125        O  0.36134874  0.97766182  0.14616669    -0.79700
C126        C  0.43325839  0.06319312  0.23154130     0.95560
O127        O  0.44300834  0.98262348  0.20220589    -0.77660
O128        O  0.34322359  0.04485497  0.23660269    -0.82850
C129        C  0.32821455  0.98284298  0.22676247     0.98180
C130        C  0.32837636  0.06173232  0.21767165     1.04100
O131        O  0.32023685  0.99442107  0.20086657    -0.78500
C132        C  0.44123919  0.97900666  0.23163190     1.02400
Fe133      Fe  0.57688842  0.01866076  0.17459036     1.65780
Fe134      Fe  0.62162804  0.02142777  0.23800059     1.73250
Fe135      Fe  0.65609681  0.02032354  0.16651430     1.54410
O136        O  0.63867288  0.98718000  0.13511317    -0.82230
O137        O  0.64391756  0.06240358  0.23127582    -0.80540
O138        O  0.58895438  0.97997368  0.14766689    -0.84740
O139        O  0.58790463  0.05204722  0.14032468    -0.79590
O140        O  0.67708501  0.98406464  0.18954496    -0.81370
O141        O  0.58161487  0.04501490  0.24761033    -0.84110
C142        C  0.61267792  0.06697418  0.13308622     0.96650
C143        C  0.61406187  0.97053580  0.13472250     1.04090
O144        O  0.61809435  0.01928372  0.19291178    -1.13090
O145        O  0.59790141  0.98097023  0.24470328    -0.75530
O146        O  0.56167605  0.98706581  0.20771432    -0.79010
O147        O  0.63945207  0.05817561  0.14205082    -0.79700
C148        C  0.57214883  0.97407369  0.23213218     0.95560
O149        O  0.56059662  0.05544873  0.20190387    -0.77660
O150        O  0.66236308  0.99739455  0.23744321    -0.82850
C151        C  0.67219672  0.06110204  0.22317890     0.98180
C152        C  0.68020181  0.98328651  0.21877939     1.04100
O153        O  0.68014780  0.05007213  0.19679570    -0.78500
C154        C  0.56180328  0.05876956  0.23130966     1.02400
Fe155      Fe  0.25857832  0.91446124  0.38697321     1.65780
Fe156      Fe  0.22994469  0.89020043  0.31850234     1.73250
Fe157      Fe  0.28280555  0.84763771  0.35535490     1.54410
O158        O  0.31732894  0.86724395  0.38167532    -0.82230
O159        O  0.20844996  0.84913490  0.32673955    -0.80540
O160        O  0.30837981  0.91742578  0.38262826    -0.84740
O161        O  0.26063202  0.87886749  0.42122531    -0.79590
O162        O  0.30546110  0.86078059  0.31587052    -0.81370
O163        O  0.19428057  0.91222563  0.34236812    -0.84110
C164        C  0.25814929  0.84915650  0.41943563     0.96650
C165        C  0.32766223  0.89460184  0.38190632     1.04090
O166        O  0.25697884  0.88443871  0.35386624    -1.13090
O167        O  0.25012965  0.93050030  0.30898260    -0.75530
O168        O  0.25709384  0.95249874  0.35545867    -0.79010
O169        O  0.26123721  0.83426571  0.39423963    -0.79700
C170        C  0.25737899  0.95345493  0.32566844     0.95560
O171        O  0.20895271  0.91122340  0.39168106    -0.77660
O172        O  0.26212986  0.86937682  0.28901581    -0.82850
C173        C  0.22289583  0.82385934  0.32320050     0.98180
C174        C  0.29082598  0.86181039  0.29051727     1.04100
O175        O  0.25161615  0.82126388  0.32994166    -0.78500
C176        C  0.18752375  0.91095272  0.37094992     1.02400
Fe177      Fe  0.39661522  0.76982811  0.08827173     1.65780
Fe178      Fe  0.32705792  0.79360785  0.11420645     1.73250
Fe179      Fe  0.36891019  0.74427162  0.15710003     1.54420
O180        O  0.37144393  0.70462480  0.13169831    -0.82230
O181        O  0.32212521  0.80063900  0.16115724    -0.80540
O182        O  0.40328987  0.71938720  0.09300681    -0.84740
O183        O  0.42878678  0.78286408  0.12248178    -0.79590
O184        O  0.32211449  0.73705817  0.16133999    -0.81370
O185        O  0.35061561  0.83428994  0.11097930    -0.84110
C186        C  0.42912886  0.77254847  0.15018705     0.96650
C187        C  0.38871654  0.69798841  0.10868085     1.04090
O188        O  0.36459260  0.76962967  0.11982344    -1.13090
O189        O  0.32840308  0.79209911  0.06677917    -0.75530
O190        O  0.36389215  0.75726922  0.05474959    -0.79010
O191        O  0.41637734  0.74699149  0.15603979    -0.79700
C192        C  0.33714159  0.76932157  0.05058841     0.95560
O193        O  0.39110892  0.82020951  0.08091698    -0.77660
O194        O  0.30224809  0.75259496  0.11652338    -0.82850
C195        C  0.33988292  0.79879005  0.18456377     0.98180
C196        C  0.30166769  0.73520459  0.14036157     1.04100
O197        O  0.36506196  0.78322524  0.18441990    -0.78500
C198        C  0.37356895  0.84148480  0.09365618     1.02400
Fe199      Fe  0.10774779  0.62677681  0.23589135     1.65780
Fe200      Fe  0.13697796  0.69053452  0.20312631     1.73250
Fe201      Fe  0.17572436  0.65705075  0.26041661     1.54410
O202        O  0.15235582  0.64270077  0.29969289    -0.82230
O203        O  0.17418374  0.67179737  0.18128460    -0.80540
O204        O  0.10373127  0.63222061  0.28494970    -0.84740
O205        O  0.14071468  0.59036612  0.24019769    -0.79590
O206        O  0.16561621  0.70048056  0.27445711    -0.81370
O207        O  0.10763297  0.66779758  0.17338883    -0.84110
C208        C  0.17059173  0.59014630  0.24199759     0.96650
C209        C  0.12391879  0.63791539  0.30605787     1.04090
O210        O  0.13978773  0.65766726  0.23375117    -1.13090
O211        O  0.09983230  0.70704453  0.22529115    -0.75530
O212        O  0.07323613  0.66251255  0.23226781    -0.79010
O213        O  0.18640595  0.61378486  0.24878606    -0.79700
C214        C  0.07527796  0.69243970  0.23274585     0.95560
O215        O  0.11114464  0.61924115  0.18662797    -0.77660
O216        O  0.16504105  0.72134373  0.22770547    -0.82850
C217        C  0.20071982  0.67247594  0.19380495     0.98180
C218        C  0.16928310  0.72321426  0.25673252     1.04100
O219        O  0.20427549  0.67135914  0.22326943    -0.78500
C220        C  0.10983754  0.63985146  0.16535566     1.02400
Fe221      Fe  0.32206418  0.51380420  0.91047105     1.65780
Fe222      Fe  0.25499922  0.51186290  0.86997366     1.73250
Fe223      Fe  0.32418391  0.51669214  0.83166060     1.54410
O224        O  0.35885514  0.54594831  0.84969014    -0.82230
O225        O  0.25947823  0.47474424  0.84128308    -0.80540
O226        O  0.34666655  0.55451798  0.89878783    -0.84740
O227        O  0.35607753  0.48158343  0.89440035    -0.79590
O228        O  0.29999563  0.55591773  0.81685729    -0.81370
O229        O  0.25007097  0.48276413  0.90582188    -0.84110
C230        C  0.35863518  0.46563585  0.86933729     0.96650
C231        C  0.35895670  0.56370959  0.87340941     1.04090
O232        O  0.30031451  0.51480230  0.87098338    -1.13090
O233        O  0.24843801  0.54824617  0.89937050    -0.75530
O234        O  0.28964860  0.54359573  0.93083302    -0.79010
O235        O  0.34739777  0.47569309  0.84379908    -0.79700
C236        C  0.26325161  0.55513421  0.92371770     0.95560
O237        O  0.29701611  0.47523289  0.92626115    -0.77660
O238        O  0.25295512  0.54142075  0.83410580    -0.82850
C239        C  0.26557691  0.48039544  0.81321766     0.98180
C240        C  0.27027887  0.55779205  0.81701430     1.04100
O241        O  0.29184260  0.49165540  0.80565695    -0.78500
C242        C  0.26791112  0.46948518  0.92450504     1.02400
Fe243      Fe  0.32198358  0.51436137  0.06691088     1.65780
Fe244      Fe  0.25577337  0.50902698  0.10800547     1.73250
Fe245      Fe  0.32463092  0.51745965  0.14759398     1.54420
O246        O  0.35616277  0.48353653  0.13226925    -0.82230
O247        O  0.25374901  0.54452169  0.13848438    -0.80540
O248        O  0.35379561  0.47947732  0.08084136    -0.84740
O249        O  0.35039684  0.55249538  0.07912379    -0.79590
O250        O  0.29942647  0.48410253  0.17225551    -0.81370
O251        O  0.24480602  0.54129795  0.07556785    -0.84110
C252        C  0.35777338  0.56647696  0.10424858     0.96650
C253        C  0.36274711  0.46910803  0.10715748     1.04090
O254        O  0.30080921  0.51435252  0.10725354    -1.13090
O255        O  0.25144840  0.47596593  0.07615109    -0.75530
O256        O  0.29524041  0.47836303  0.04831514    -0.79010
O257        O  0.35054394  0.55521735  0.13070112    -0.79700
C258        C  0.26793704  0.46792193  0.05351218     0.95560
O259        O  0.28987640  0.54654322  0.04933602    -0.77660
O260        O  0.26546764  0.47333458  0.13680639    -0.82850
C261        C  0.26407257  0.54793036  0.16540937     0.98180
C262        C  0.27213706  0.47595264  0.16485953     1.04100
O263        O  0.29327571  0.54705018  0.17038135    -0.78500
C264        C  0.26090013  0.55274909  0.05378986     1.02400
Fe265      Fe  0.19350006  0.44113211  0.98924264     1.65780
Fe266      Fe  0.25408115  0.39452201  0.98822064     1.73250
Fe267      Fe  0.18017979  0.36079941  0.98856786     1.54420
O268        O  0.15340048  0.38010073  0.02479792    -0.82230
O269        O  0.23999418  0.36883402  0.95190495    -0.80540
O270        O  0.16249884  0.43129516  0.02570670    -0.84740
O271        O  0.16198622  0.43175637  0.95324869    -0.79590
O272        O  0.20570927  0.33402696  0.02033570    -0.81370
O273        O  0.26750244  0.42484242  0.95508415    -0.84110
C274        C  0.15090987  0.40745702  0.94028263     0.96650
C275        C  0.15140468  0.40666541  0.03790702     1.04090
O276        O  0.20901838  0.39916126  0.98859916    -1.13090
O277        O  0.26799689  0.42507344  0.02069283    -0.75530
O278        O  0.22506827  0.45461225  0.02331453    -0.79010
O279        O  0.15404361  0.38047348  0.95232802    -0.79700
C280        C  0.25291397  0.44782936  0.03135155     0.95560
O281        O  0.22517235  0.45537787  0.95522007    -0.77660
O282        O  0.24005481  0.36974230  0.02557279    -0.82850
C283        C  0.23417413  0.34063716  0.95312723     0.98180
C284        C  0.23356569  0.34160986  0.02597149     1.04100
O285        O  0.20599772  0.33327434  0.95726217    -0.78500
C286        C  0.25277539  0.44845010  0.94602625     1.02400
Fe287      Fe  0.18973771  0.58581644  0.98813807     1.65780
Fe288      Fe  0.25525767  0.62933867  0.99022885     1.73250
Fe289      Fe  0.18425741  0.66479635  0.98551267     1.54410
O290        O  0.15087976  0.64612441  0.95573419    -0.82230
O291        O  0.25025998  0.65845150  0.02702419    -0.80540
O292        O  0.16285845  0.59670838  0.94875261    -0.84740
O293        O  0.15624922  0.59991035  0.02156247    -0.79590
O294        O  0.20838851  0.68137178  0.94684049    -0.81370
O295        O  0.26215168  0.59394199  0.01980751    -0.84110
C296        C  0.15094344  0.62530833  0.03622962     0.96650
C297        C  0.14961639  0.62151127  0.93945136     1.04090
O298        O  0.20981668  0.62640725  0.98746973    -1.13090
O299        O  0.26298201  0.59992715  0.95394123    -0.75530
O300        O  0.22191060  0.56782561  0.95676928    -0.79010
O301        O  0.16027049  0.65149079  0.02574157    -0.79700
C302        C  0.24834118  0.57581569  0.94573632     0.95560
O303        O  0.21659418  0.56990410  0.02544071    -0.77660
O304        O  0.25579962  0.66511484  0.96064065    -0.82850
C305        C  0.24151017  0.68602320  0.02230168     0.98180
C306        C  0.23807704  0.68218453  0.94491476     1.04100
O307        O  0.21486025  0.69177971  0.01116733    -0.78500
C308        C  0.24532526  0.57356331  0.03212250     1.02400
Fe309      Fe  0.25594586  0.12375107  0.59300453     1.65780
Fe310      Fe  0.28443463  0.18660846  0.62794281     1.73250
Fe311      Fe  0.22871063  0.14637945  0.66323083     1.54410
O312        O  0.19071834  0.13029676  0.63877287    -0.82230
O313        O  0.30618283  0.16510406  0.66285469    -0.80540
O314        O  0.20593387  0.12489873  0.58965899    -0.84740
O315        O  0.25740255  0.08504643  0.62286982    -0.79590
O316        O  0.21092173  0.18896563  0.65600630    -0.81370
O317        O  0.31624498  0.16911137  0.59714851    -0.84110
C318        C  0.25653866  0.08315597  0.65259927     0.96650
C319        C  0.18417599  0.12727405  0.61022386     1.04090
O320        O  0.25557788  0.15195822  0.62741322    -1.13090
O321        O  0.26280085  0.20509216  0.59275826    -0.75530
O322        O  0.25422926  0.16277647  0.56279912    -0.79010
O323        O  0.24473279  0.10353548  0.67023856    -0.79700
C324        C  0.25201647  0.19205016  0.56893385     0.95560
O325        O  0.30616926  0.11978801  0.59500214    -0.77660
O326        O  0.25600830  0.21338088  0.65732377    -0.82850
C327        C  0.29376664  0.16577274  0.68931691     0.98180
C328        C  0.22635021  0.21366108  0.65805390     1.04100
O329        O  0.26424802  0.16256664  0.69320085    -0.78500
C330        C  0.32613564  0.14177484  0.59622649     1.02400
Fe331      Fe  0.10824548  0.41216370  0.73961867     1.65780
Fe332      Fe  0.17736347  0.38861217  0.71102188     1.73250
Fe333      Fe  0.14318149  0.34749473  0.76678774     1.54410
O334        O  0.12136207  0.36827256  0.80401060    -0.82230
O335        O  0.16694386  0.34823735  0.68937347    -0.80540
O336        O  0.11024958  0.41631011  0.78922876    -0.84740
O337        O  0.07562087  0.37490933  0.73975106    -0.79590
O338        O  0.18384507  0.36272511  0.78479282    -0.81370
O339        O  0.15352290  0.41299911  0.67751795    -0.84110
C340        C  0.07912313  0.34518899  0.73943244     0.96650
C341        C  0.11480781  0.39613149  0.81063499     1.04090
O342        O  0.14231803  0.38299561  0.73919550    -1.13090
O343        O  0.18713161  0.42824501  0.73237081    -0.75530
O344        O  0.13997585  0.45034093  0.73882844    -0.79010
O345        O  0.10293448  0.33164835  0.74988968    -0.79700
C346        C  0.16999257  0.45119946  0.73952560     0.95560
O347        O  0.10402524  0.40956961  0.69008977    -0.77660
O348        O  0.20863616  0.36584988  0.73999022    -0.82850
C349        C  0.16834874  0.32263901  0.70362746     0.98180
C350        C  0.20861560  0.36089590  0.76904077     1.04100
O351        O  0.16519494  0.32049698  0.73300244    -0.78500
C352        C  0.12548056  0.40998573  0.66933620     1.02400
Fe353      Fe  0.40048188  0.26562976  0.88578166     1.65780
Fe354      Fe  0.37867300  0.28462566  0.81420830     1.73250
Fe355      Fe  0.33420108  0.23793420  0.85613689     1.54420
O356        O  0.35415274  0.20655505  0.88613372    -0.82230
O357        O  0.33855126  0.30824197  0.81966368    -0.80540
O358        O  0.40435523  0.21574914  0.88402488    -0.84740
O359        O  0.36375397  0.26561447  0.91945554    -0.79590
O360        O  0.34892183  0.21106371  0.82055186    -0.81370
O361        O  0.40125686  0.32178669  0.83500990    -0.84110
C362        C  0.33411028  0.26900877  0.91663606     0.96650
C363        C  0.38166800  0.19626743  0.88411955     1.04090
O364        O  0.37115472  0.26319306  0.85242817    -1.13090
O365        O  0.41880825  0.26200948  0.80845506    -0.75530
O366        O  0.43978160  0.26683704  0.85554800    -0.79010
O367        O  0.31975163  0.26349098  0.89178059    -0.79700
C368        C  0.44205123  0.26189014  0.82629165     0.95560
O369        O  0.39639066  0.31534520  0.88556173    -0.77660
O370        O  0.35721695  0.24985457  0.78795427    -0.82850
C371        C  0.31208592  0.29560545  0.82013325     0.98180
C372        C  0.35067486  0.22141637  0.79336196     1.04100
O373        O  0.30819084  0.26716787  0.82740965    -0.78500
C374        C  0.39751797  0.33345093  0.86184349     1.02400
Fe375      Fe  0.92543404  0.32532319  0.48095504     1.65780
Fe376      Fe  0.87959776  0.26290123  0.47925179     1.73250
Fe377      Fe  0.84703893  0.33480971  0.48364220     1.54410
O378        O  0.86665547  0.36436629  0.51802540    -0.82230
O379        O  0.85675774  0.27005345  0.43902296    -0.80540
O380        O  0.91637359  0.34984375  0.52167075    -0.84740
O381        O  0.91406192  0.36165991  0.44981733    -0.79590
O382        O  0.82740067  0.31090572  0.51988024    -0.81370
O383        O  0.91881881  0.25451641  0.45476228    -0.84110
C384        C  0.88925563  0.36767840  0.43463959     0.96650
C385        C  0.89200136  0.36215847  0.53352168     1.04090
O386        O  0.88403296  0.30781692  0.48247144    -1.13090
O387        O  0.90486779  0.25400654  0.51852012    -0.75530
O388        O  0.94237430  0.28916159  0.50931445    -0.79010
O389        O  0.86264685  0.35966053  0.44513500    -0.79700
C390        C  0.93223425  0.26449698  0.52268816     0.95560
O391        O  0.93642643  0.30096786  0.44152598    -0.77660
O392        O  0.83898596  0.26306210  0.50345712    -0.82850
C393        C  0.82989608  0.28192045  0.43707655     0.98180
C394        C  0.82301353  0.28183792  0.51953770     1.04100
O395        O  0.82210159  0.30602059  0.45277568    -0.78500
C396        C  0.93584445  0.27177320  0.43861955     1.02400
Fe397      Fe  0.07120076  0.33230538  0.49042007     1.65780
Fe398      Fe  0.11223062  0.26706189  0.48950413     1.73250
Fe399      Fe  0.15042931  0.33588737  0.48693363     1.54420
O400        O  0.13464843  0.36106033  0.44922408    -0.82230
O401        O  0.15412577  0.26480078  0.51020627    -0.80540
O402        O  0.08365758  0.36656052  0.45748634    -0.84740
O403        O  0.08426694  0.35871241  0.52982456    -0.79590
O404        O  0.17095846  0.30347708  0.45632885    -0.81370
O405        O  0.08977498  0.26311428  0.53114754    -0.84110
C406        C  0.11059895  0.36986049  0.53827993     0.96650
C407        C  0.10822190  0.37152088  0.44127467     1.04090
O408        O  0.11139438  0.31213292  0.49045955    -1.13090
O409        O  0.07102775  0.25920934  0.46923877    -0.75530
O410        O  0.05709713  0.30536681  0.45201000    -0.79010
O411        O  0.13469649  0.36830300  0.52050231    -0.79700
C412        C  0.05714448  0.27570924  0.45001678     0.95560
O413        O  0.05328848  0.29918004  0.52132444    -0.77660
O414        O  0.13185041  0.27180089  0.44694901    -0.82850
C415        C  0.17293995  0.28258824  0.52369345     0.98180
C416        C  0.16023603  0.27852686  0.44433302     1.04100
O417        O  0.17154818  0.31189732  0.52217634    -0.78500
C418        C  0.06290146  0.27492951  0.53550687     1.02400
Fe419      Fe  0.00255883  0.20040430  0.41074327     1.65780
Fe420      Fe  0.00250593  0.26463798  0.36732285     1.73250
Fe421      Fe  0.00058571  0.19409299  0.33131044     1.54420
O422        O  0.04021011  0.16973733  0.34605218    -0.82230
O423        O  0.97566866  0.26299568  0.33006237    -0.80540
O424        O  0.03726654  0.16789490  0.39769346    -0.84740
O425        O  0.96472766  0.17190920  0.40014827    -0.79590
O426        O  0.02830284  0.22599184  0.30614368    -0.81370
O427        O  0.96385531  0.27054846  0.39293271    -0.84110
C428        C  0.95353821  0.16003982  0.37557014     0.96650
C429        C  0.05122051  0.16111431  0.37220387     1.04090
O430        O  0.00117806  0.21953077  0.37002463    -1.13090
O431        O  0.02764584  0.27495109  0.40524771    -0.75530
O432        O  0.03783014  0.22944214  0.42700896    -0.79010
O433        O  0.96828903  0.16191016  0.34971021    -0.79700
C434        C  0.04000906  0.25904031  0.42604288     0.95560
O435        O  0.97009221  0.23184191  0.42726408    -0.77660
O436        O  0.04191434  0.25961223  0.34209733    -0.82850
C437        C  0.96098285  0.24633588  0.31149148     0.98180
C438        C  0.03806010  0.25288904  0.31399893     1.04100
O439        O  0.96268236  0.21693132  0.31174496    -0.78500
C440        C  0.95741569  0.25697447  0.41806841     1.02400
Fe441      Fe  0.00076202  0.19717716  0.56090118     1.65780
Fe442      Fe  0.98978357  0.26166017  0.60393873     1.73250
Fe443      Fe  0.00089207  0.19278430  0.64100886     1.54410
O444        O  0.96450945  0.16437979  0.62560212    -0.82230
O445        O  0.01676818  0.26548490  0.64146379    -0.80540
O446        O  0.96720179  0.16351092  0.57365608    -0.84740
O447        O  0.04033725  0.17086254  0.57334637    -0.79590
O448        O  0.96883995  0.21986746  0.66602347    -0.81370
O449        O  0.02756238  0.27285653  0.57694887    -0.84110
C450        C  0.05146719  0.16032560  0.59860871     0.96650
C451        C  0.95349832  0.15638410  0.59922418     1.04090
O452        O  0.99814286  0.21722853  0.60169187    -1.13090
O453        O  0.96198436  0.26615760  0.56685615    -0.75530
O454        O  0.96322927  0.22179789  0.54099051    -0.79010
O455        O  0.03673558  0.16399492  0.62413043    -0.79700
C456        C  0.95312489  0.24937551  0.54493732     0.95560
O457        O  0.03257003  0.23085754  0.54600216    -0.77660
O458        O  0.95164355  0.25094559  0.62989382    -0.82850
C459        C  0.03354308  0.25100020  0.66043619     0.98180
C460        C  0.95612577  0.24524215  0.65818802     1.04100
O461        O  0.03520976  0.22139848  0.66063578    -0.78500
C462        C  0.04032524  0.25828855  0.55454396     1.02400
Fe463      Fe  0.60497569  0.26652929  0.09146949     1.65780
Fe464      Fe  0.67468252  0.23828721  0.11208020     1.73250
Fe465      Fe  0.63819836  0.28847664  0.15817303     1.54420
O466        O  0.63538424  0.32867811  0.13311621    -0.82230
O467        O  0.68392703  0.23126749  0.15761548    -0.80540
O468        O  0.59973870  0.31607251  0.09752976    -0.84740
O469        O  0.57375879  0.25490948  0.12708155    -0.79590
O470        O  0.68538018  0.29306666  0.15869691    -0.81370
O471        O  0.64757290  0.19968904  0.11277193    -0.84110
C472        C  0.57323477  0.26711143  0.15404539     0.96650
C473        C  0.61616143  0.33642723  0.11215961     1.04090
O474        O  0.63877994  0.26414483  0.12075814    -1.13090
O475        O  0.66747939  0.24052100  0.06571048    -0.75530
O476        O  0.63727317  0.27973454  0.05699405    -0.79010
O477        O  0.59071676  0.28958523  0.16032880    -0.79700
C478        C  0.66379179  0.26684168  0.05415109     0.95560
O479        O  0.60749445  0.21658796  0.08397912    -0.77660
O480        O  0.70224909  0.27771761  0.11227732    -0.82850
C481        C  0.66635103  0.23008281  0.18135520     0.98180
C482        C  0.70387808  0.29555301  0.13585966     1.04100
O483        O  0.64223381  0.24750013  0.18424654    -0.78500
C484        C  0.62282994  0.19455394  0.09761552     1.02400
Fe485      Fe  0.75040124  0.11907547  0.38107401     1.65780
Fe486      Fe  0.77616869  0.14135562  0.31114812     1.73250
Fe487      Fe  0.72110446  0.18285105  0.34693485     1.54410
O488        O  0.68355390  0.15461333  0.35093112    -0.82230
O489        O  0.77895989  0.18743039  0.30127903    -0.80540
O490        O  0.70008115  0.12243051  0.38815347    -0.84740
O491        O  0.76117982  0.15621826  0.41005430    -0.79590
O492        O  0.71488726  0.18201995  0.29982937    -0.81370
O493        O  0.81470782  0.14590140  0.33819406    -0.84110
C494        C  0.74870713  0.18292456  0.40783731     0.96650
C495        C  0.67796975  0.13477711  0.37190492     1.04090
O496        O  0.74903721  0.14766116  0.34642859    -1.13090
O497        O  0.77833268  0.09452525  0.31911125    -0.75530
O498        O  0.74006862  0.08282819  0.35036250    -0.79010
O499        O  0.72299726  0.18586981  0.39428962    -0.79700
C500        C  0.75385585  0.07941243  0.32432404     0.95560
O501        O  0.80091875  0.11419210  0.37703259    -0.77660
O502        O  0.73746517  0.13838510  0.28265132    -0.82850
C503        C  0.77700829  0.21109883  0.31865354     0.98180
C504        C  0.71923990  0.16149522  0.27904206     1.04100
O505        O  0.75876571  0.21210952  0.34202251    -0.78500
C506        C  0.82185990  0.12942845  0.36146187     1.02400
Fe507      Fe  0.89665675  0.40655768  0.23346990     1.65780
Fe508      Fe  0.82784313  0.37774039  0.25640669     1.73250
Fe509      Fe  0.86854015  0.34120241  0.20102795     1.54410
O510        O  0.89444143  0.36457964  0.16803595    -0.82230
O511        O  0.83979365  0.33706685  0.27477344    -0.80540
O512        O  0.89424074  0.41309660  0.18420151    -0.84740
O513        O  0.93111552  0.37095100  0.23358302    -0.79590
O514        O  0.83063835  0.35684133  0.18003042    -0.81370
O515        O  0.84888969  0.39775232  0.29457516    -0.84110
C516        C  0.92853180  0.34114260  0.23347127     0.96650
C517        C  0.89262878  0.39321337  0.16215004     1.04090
O518        O  0.86488282  0.37545527  0.23064931    -1.13090
O519        O  0.81689963  0.41896055  0.23937847    -0.75530
O520        O  0.86333192  0.44272939  0.23439247    -0.79010
O521        O  0.90668713  0.32642152  0.22088252    -0.79700
C522        C  0.83348834  0.44215167  0.23248872     0.95560
O523        O  0.89892028  0.40274891  0.28293149    -0.77660
O524        O  0.79989516  0.35730913  0.22147743    -0.82850
C525        C  0.83772474  0.31229177  0.25961348     0.98180
C526        C  0.80435855  0.35380645  0.19227072     1.04100
O527        O  0.84323323  0.31104273  0.23044360    -0.78500
C528        C  0.87690806  0.40074987  0.30314320     1.02400
Fe529      Fe  0.75743298  0.91420869  0.37975971     1.65780
Fe530      Fe  0.78209948  0.87272221  0.31776850     1.73250
Fe531      Fe  0.73266415  0.84093251  0.36850533     1.54420
O532        O  0.73187282  0.85633754  0.41315205    -0.82230
O533        O  0.74153328  0.86131853  0.29392171    -0.80540
O534        O  0.76950577  0.88881205  0.41949716    -0.84740
O535        O  0.70728909  0.91065386  0.38630900    -0.79590
O536        O  0.77309816  0.81418434  0.37301370    -0.81370
O537        O  0.77721253  0.91819675  0.30541363    -0.84110
C538        C  0.68630321  0.89314163  0.37365731     0.96650
C539        C  0.75736747  0.86260123  0.42546313     1.04090
O540        O  0.75789191  0.87620160  0.35547293    -1.13090
O541        O  0.82247329  0.88391353  0.34008911    -0.75530
O542        O  0.80737431  0.92094373  0.37358697    -0.79010
O543        O  0.69303637  0.86669072  0.36209317    -0.79700
C544        C  0.82897877  0.90546104  0.35915136     0.95560
O545        O  0.74525968  0.93908967  0.34045706    -0.77660
O546        O  0.79208615  0.82708448  0.32623976    -0.82850
C547        C  0.72519409  0.83746486  0.30024830     0.98180
C548        C  0.79165489  0.80964623  0.34999106     1.04100
O549        O  0.72815365  0.82280870  0.32531204    -0.78500
C550        C  0.75536194  0.93636132  0.31278008     1.02400
Fe551      Fe  0.89783669  0.62444646  0.24042536     1.65780
Fe552      Fe  0.86644602  0.69253028  0.21821926     1.73250
Fe553      Fe  0.82808479  0.64691593  0.26679364     1.54420
O554        O  0.83359027  0.59995795  0.26768867    -0.82230
O555        O  0.86177972  0.71715961  0.26053020    -0.80540
O556        O  0.86624026  0.59002570  0.23007392    -0.84740
O557        O  0.89405973  0.61817552  0.29084864    -0.79590
O558        O  0.80298072  0.64522230  0.22636263    -0.81370
O559        O  0.91372152  0.69616296  0.21933479    -0.84110
C560        C  0.87712565  0.63134316  0.31238389     0.96650
C561        C  0.84032951  0.58531326  0.24342820     1.04090
O562        O  0.86480469  0.65444158  0.24171856    -1.13090
O563        O  0.87067779  0.66860824  0.17677168    -0.75530
O564        O  0.90161966  0.62872726  0.19010885    -0.79010
O565        O  0.85405203  0.64864523  0.30588290    -0.79700
C566        C  0.88651285  0.64461156  0.16947937     0.95560
O567        O  0.92996371  0.65888691  0.25032178    -0.77660
O568        O  0.81937707  0.69202078  0.21183384    -0.82850
C569        C  0.83758469  0.71389846  0.27778095     0.98180
C570        C  0.80123342  0.66895896  0.20893191     1.04100
O571        O  0.81804883  0.69314763  0.27121608    -0.78500
C572        C  0.93128667  0.68671725  0.24060118     1.02400
Fe573      Fe  0.61558874  0.76607577  0.10088732     1.65780
Fe574      Fe  0.67655791  0.79441864  0.14045205     1.73250
Fe575      Fe  0.63325517  0.73735668  0.17075324     1.54420
O576        O  0.58728238  0.73385555  0.15963552    -0.82230
O577        O  0.70511943  0.75587725  0.14553678    -0.80540
O578        O  0.57699453  0.77347538  0.12978505    -0.84740
O579        O  0.61144191  0.71606133  0.10177927    -0.79590
O580        O  0.62708841  0.77410138  0.20113418    -0.81370
O581        O  0.68396964  0.79413948  0.09367265    -0.84110
C582        C  0.62603442  0.69464780  0.11684818     0.96650
C583        C  0.57154900  0.75775393  0.15426316     1.04090
O584        O  0.64136175  0.76654496  0.13746038    -1.13090
O585        O  0.64893216  0.83273300  0.13522583    -0.75530
O586        O  0.61782896  0.81626882  0.09689517    -0.79010
O587        O  0.64086265  0.70042954  0.14163739    -0.79700
C588        C  0.62918057  0.83815143  0.11408123     0.95560
O589        O  0.65521670  0.75732010  0.07382846    -0.77660
O590        O  0.67106036  0.79859125  0.18736325    -0.82850
C591        C  0.70152335  0.73550939  0.16664464     0.98180
C592        C  0.65000541  0.79184423  0.20711375     1.04100
O593        O  0.67827666  0.73634124  0.18444584    -0.78500
C594        C  0.68192146  0.76908487  0.07881408     1.02400
Fe595      Fe  0.11252464  0.62197190  0.73652569     1.65780
Fe596      Fe  0.13998106  0.68935462  0.76489681     1.73250
Fe597      Fe  0.18210765  0.65003888  0.71340683     1.54420
O598        O  0.17839033  0.60288814  0.71209317    -0.82230
O599        O  0.14253042  0.71690855  0.72548246    -0.80540
O600        O  0.14559771  0.58835715  0.74795393    -0.84740
O601        O  0.11762454  0.61786821  0.68634243    -0.79590
O602        O  0.20833736  0.65032347  0.75383815    -0.81370
O603        O  0.09261720  0.68663785  0.76317260    -0.84110
C604        C  0.13306798  0.63394064  0.66599150     0.96650
C605        C  0.17308466  0.58857568  0.73684740     1.04090
O606        O  0.14478634  0.65345701  0.73843826    -1.13090
O607        O  0.13829595  0.66155604  0.80344168    -0.75530
O608        O  0.10577224  0.62434219  0.78665261    -0.79010
O609        O  0.15608570  0.65084417  0.67371014    -0.79700
C610        C  0.12104451  0.63805922  0.80868179     0.95560
O611        O  0.08016578  0.65624378  0.72487462    -0.77660
O612        O  0.18680257  0.69414178  0.77093090    -0.82850
C613        C  0.16602658  0.71651897  0.70710974     0.98180
C614        C  0.20750502  0.67318753  0.77277733     1.04100
O615        O  0.18770632  0.69700800  0.71059057    -0.78500
C616        C  0.07993522  0.68299806  0.73730263     1.02400
Fe617      Fe  0.39545774  0.76795364  0.88329637     1.65780
Fe618      Fe  0.32644762  0.79505663  0.85939309     1.73250
Fe619      Fe  0.36960666  0.74600196  0.81381717     1.54410
O620        O  0.41647215  0.74451866  0.81931620    -0.82230
O621        O  0.29943589  0.75453873  0.85661674    -0.80540
O622        O  0.42867588  0.78188770  0.85050719    -0.84740
O623        O  0.40030799  0.71769712  0.87632613    -0.79590
O624        O  0.32802619  0.75887262  0.79152577    -0.81370
O625        O  0.32985417  0.79112072  0.90629017    -0.84110
C626        C  0.38418443  0.69741171  0.86079668     0.96650
C627        C  0.43003503  0.76986157  0.82366701     1.04090
O628        O  0.36360873  0.77038861  0.85161758    -1.13090
O629        O  0.35232311  0.83439885  0.86190805    -0.75530
O630        O  0.39195116  0.81795760  0.89143735    -0.79010
O631        O  0.36679086  0.70552746  0.83833703    -0.79700
C632        C  0.37652706  0.83992902  0.87768925     0.95560
O633        O  0.36217157  0.75358168  0.91575948    -0.77660
O634        O  0.32177915  0.80497993  0.81383311    -0.82850
C635        C  0.30112619  0.73363218  0.83556643     0.98180
C636        C  0.31924371  0.78734716  0.79067073     1.04100
O637        O  0.32226577  0.73445048  0.81418087    -0.78500
C638        C  0.33492561  0.76486639  0.91758403     1.02400
Fe639      Fe  0.24592267  0.91299240  0.59540220     1.65780
Fe640      Fe  0.21304082  0.88474735  0.66106028     1.73250
Fe641      Fe  0.26495901  0.84243602  0.62114794     1.54410
O642        O  0.26931241  0.84959687  0.57461034    -0.82230
O643        O  0.24843865  0.87459228  0.69113063    -0.80540
O644        O  0.23264304  0.88071024  0.56049162    -0.84740
O645        O  0.29665553  0.90507584  0.59266411    -0.79590
O646        O  0.22426849  0.81765941  0.61793220    -0.81370
O647        O  0.22124015  0.93114924  0.66414689    -0.84110
C648        C  0.31517259  0.88974914  0.61090542     0.96650
C649        C  0.24454122  0.85359369  0.56001025     1.04090
O650        O  0.24092414  0.88022921  0.62596200    -1.13090
O651        O  0.17643062  0.89429075  0.63385334    -0.75530
O652        O  0.19652917  0.92510246  0.59711660    -0.79010
O653        O  0.30489636  0.86697230  0.62666432    -0.79700
C654        C  0.17294921  0.91338367  0.61186955     0.95560
O655        O  0.25864904  0.94291326  0.63122845    -0.77660
O656        O  0.20062457  0.83903396  0.65919438    -0.82850
C657        C  0.26125623  0.84800989  0.69099756     0.98180
C658        C  0.20314661  0.81766870  0.63897274     1.04100
O659        O  0.26455332  0.83174133  0.66683751    -0.78500
C660        C  0.24770179  0.94246741  0.65883995     1.02400
Fe661      Fe  0.57690820  0.01742573  0.80434102     1.65780
Fe662      Fe  0.62061183  0.03151500  0.74100413     1.73250
Fe663      Fe  0.65737769  0.01634018  0.80892768     1.54410
O664        O  0.64202906  0.05200212  0.83761711    -0.82230
O665        O  0.65700844  0.00274718  0.73599189    -0.80540
O666        O  0.59002220  0.04887950  0.84013482    -0.84740
O667        O  0.58917671  0.97612043  0.82849157    -0.79590
O668        O  0.68423065  0.04795237  0.78395089    -0.81370
O669        O  0.59133912  0.99686773  0.72554016    -0.84110
C670        C  0.61474332  0.96584947  0.83963323     0.96650
C671        C  0.61575966  0.06251822  0.84688348     1.04090
O672        O  0.61788176  0.02012363  0.78450759    -1.13090
O673        O  0.58563672  0.06126082  0.73875973    -0.75530
O674        O  0.55803722  0.05657772  0.78215787    -0.79010
O675        O  0.63962507  0.98148416  0.83695277    -0.79700
C676        C  0.56320796  0.06870484  0.75570420     0.95560
O677        O  0.56119820  0.98880928  0.76785678    -0.77660
O678        O  0.64700130  0.06712486  0.75671226    -0.82850
C679        C  0.67648609  0.98562923  0.74948662     0.98180
C680        C  0.67543485  0.06111663  0.75949302     1.04100
O681        O  0.67643229  0.98264571  0.77901346    -0.78500
C682        C  0.56841814  0.98388796  0.73921177     1.02400
Fe683      Fe  0.50103623  0.94750037  0.66784125     1.65780
Fe684      Fe  0.51126289  0.90615458  0.73209214     1.73250
Fe685      Fe  0.50680540  0.86874114  0.66324167     1.54420
O686        O  0.46336897  0.88007087  0.64642080    -0.82230
O687        O  0.54021272  0.86862248  0.72805600    -0.80540
O688        O  0.46629920  0.93052493  0.63623649    -0.84740
O689        O  0.54031500  0.93794086  0.64012733    -0.79590
O690        O  0.48527610  0.84292682  0.69966400    -0.81370
O691        O  0.54918431  0.93399000  0.73208215    -0.84110
C692        C  0.54971161  0.91306127  0.62682893     0.96650
C693        C  0.45072975  0.90503205  0.63708221     1.04090
O694        O  0.50687651  0.90755769  0.68757202    -1.13090
O695        O  0.48260576  0.94352574  0.74183026    -0.75530
O696        O  0.46333798  0.95825021  0.69632636    -0.79010
O697        O  0.53212709  0.88901705  0.62613929    -0.79700
C698        C  0.46277094  0.95818557  0.72585217     0.95560
O699        O  0.53215380  0.97012668  0.69919956    -0.77660
O700        O  0.47330866  0.87864620  0.73494429    -0.82850
C701        C  0.55356554  0.85126381  0.70812122     0.98180
C702        C  0.47463579  0.85068539  0.72644671     1.04100
O703        O  0.54883474  0.85357628  0.67933507    -0.78500
C704        C  0.54943535  0.96141112  0.72185791     1.02400
Fe705      Fe  0.42900052  0.01891528  0.80240910     1.65780
Fe706      Fe  0.38676319  0.02100226  0.73815306     1.73250
Fe707      Fe  0.34954613  0.01572596  0.80737478     1.54410
O708        O  0.36859900  0.98413606  0.83997261    -0.82230
O709        O  0.36268921  0.06014034  0.74799523    -0.80540
O710        O  0.41895409  0.97899742  0.82817958    -0.84740
O711        O  0.41446741  0.05046807  0.83719284    -0.79590
O712        O  0.33265322  0.97756213  0.78272346    -0.81370
O713        O  0.42428156  0.04684148  0.73050589    -0.84110
C714        C  0.38939005  0.06606451  0.84145112     0.96650
C715        C  0.39423310  0.96875026  0.84118086     1.04090
O716        O  0.38872773  0.01664355  0.78282038    -1.13090
O717        O  0.41389968  0.98292590  0.72954502    -0.75530
O718        O  0.44821388  0.98971519  0.76821002    -0.79010
O719        O  0.36315856  0.05600891  0.83162361    -0.79700
C720        C  0.44001564  0.97758092  0.74232392     0.95560
O721        O  0.44177424  0.05813220  0.77729453    -0.77660
O722        O  0.34816229  0.99498572  0.73652075    -0.82850
C723        C  0.33393153  0.05661586  0.75134165     0.98180
C724        C  0.33156339  0.97749538  0.75313613     1.04100
O725        O  0.32382814  0.04315920  0.77570718    -0.78500
C726        C  0.44043141  0.06287763  0.74821984     1.02400
Fe727      Fe  0.50384659  0.09876278  0.67920736     1.65780
Fe728      Fe  0.49782968  0.14367707  0.74305890     1.73250
Fe729      Fe  0.50429140  0.17696009  0.67134769     1.54410
O730        O  0.53286484  0.15689952  0.63704612    -0.82230
O731        O  0.46121042  0.17110158  0.73270633    -0.80540
O732        O  0.54417951  0.10985063  0.65383276    -0.84740
O733        O  0.47174681  0.11150595  0.64405171    -0.79590
O734        O  0.54403339  0.19222592  0.69356861    -0.81370
O735        O  0.46841004  0.10831626  0.75027469    -0.84110
C736        C  0.45512945  0.13585748  0.63925714     0.96650
C737        C  0.55152487  0.13391275  0.63841688     1.04090
O738        O  0.50299401  0.13934991  0.69810618    -1.13090
O739        O  0.53281872  0.11413684  0.75517414    -0.75530
O740        O  0.53295748  0.08242805  0.71369999    -0.79010
O741        O  0.46341645  0.16256250  0.64947503    -0.79700
C742        C  0.54143832  0.08970611  0.74115939     0.95560
O743        O  0.46636971  0.08318705  0.70496947    -0.77660
O744        O  0.52915896  0.17885219  0.74182441    -0.82850
C745        C  0.46849479  0.19889189  0.72825577     0.98180
C746        C  0.54667759  0.19332206  0.72301632     1.04100
O747        O  0.47982985  0.20635116  0.70213972    -0.78500
C748        C  0.45924822  0.08633859  0.73357499     1.02400
Fe749      Fe  0.92769971  0.70545316  0.48682981     1.65780
Fe750      Fe  0.88494180  0.76938008  0.49022726     1.73250
Fe751      Fe  0.84631197  0.69921371  0.49020659     1.54420
O752        O  0.86330499  0.66980770  0.45468725    -0.82230
O753        O  0.85454767  0.76332050  0.52595430    -0.80540
O754        O  0.91483691  0.67438299  0.45213101    -0.84740
O755        O  0.91691408  0.67520280  0.52312874    -0.79590
O756        O  0.82198907  0.72638483  0.45774135    -0.81370
O757        O  0.91551302  0.77793153  0.52424669    -0.84110
C758        C  0.89228740  0.66623560  0.53728675     0.96650
C759        C  0.88941149  0.66401186  0.44130786     1.04090
O760        O  0.88658655  0.72443322  0.48955923    -1.13090
O761        O  0.91823275  0.78005325  0.45867860    -0.75530
O762        O  0.94284542  0.73499458  0.45143074    -0.79010
O763        O  0.86483185  0.67211280  0.52697884    -0.79700
C764        C  0.93888925  0.76381536  0.44570544     0.95560
O765        O  0.94585943  0.73577261  0.51967858    -0.77660
O766        O  0.85888239  0.76029515  0.45233604    -0.82850
C767        C  0.82646820  0.75636853  0.52423042     0.98180
C768        C  0.83059162  0.75371908  0.45083315     1.04100
O769        O  0.81981923  0.72787965  0.52048329    -0.78500
C770        C  0.93954838  0.76254954  0.53090118     1.02400
Fe771      Fe  0.00525111  0.83516063  0.41319193     1.65780
Fe772      Fe  0.00284222  0.77165691  0.36954230     1.73250
Fe773      Fe  0.00844682  0.84263996  0.33250034     1.54410
O774        O  0.97330041  0.87181773  0.34902383    -0.82230
O775        O  0.03885518  0.77467584  0.33927100    -0.80540
O776        O  0.97053150  0.86773813  0.40047015    -0.84740
O777        O  0.04348820  0.86364109  0.40220172    -0.79590
O778        O  0.97621843  0.81708914  0.30680032    -0.81370
O779        O  0.03626782  0.75965546  0.40039729    -0.84110
C780        C  0.05680146  0.87337708  0.37744841     0.96650
C781        C  0.95963862  0.87773227  0.37476119     1.04090
O782        O  0.00633376  0.81658245  0.37204863    -1.13090
O783        O  0.97026785  0.76334928  0.40205237    -0.75530
O784        O  0.96873906  0.80716290  0.42953744    -0.79010
O785        O  0.04513756  0.86912835  0.35059733    -0.79700
C786        C  0.96006645  0.77929910  0.42427075     0.95560
O787        O  0.03770852  0.80267241  0.42981987    -0.77660
O788        O  0.96599211  0.78411244  0.34304017    -0.82850
C789        C  0.03918886  0.78501144  0.31219730     0.98180
C790        C  0.96710928  0.79038072  0.31477495     1.04100
O791        O  0.03933017  0.81417614  0.30813074    -0.78500
C792        C  0.04617846  0.77475241  0.42348131     1.02400
Fe793      Fe  0.08050837  0.70361238  0.48740685     1.65780
Fe794      Fe  0.12346565  0.76855444  0.48698857     1.73250
Fe795      Fe  0.15982750  0.69831135  0.48798596     1.54420
O796        O  0.13994750  0.66252127  0.51484031    -0.82230
O797        O  0.15214533  0.76504760  0.44976516    -0.80540
O798        O  0.09234237  0.67799342  0.52710102    -0.84740
O799        O  0.09525315  0.66972950  0.45489012    -0.79590
O800        O  0.17675545  0.71855698  0.52850309    -0.81370
O801        O  0.08717049  0.77623021  0.45806052    -0.84110
C802        C  0.11936400  0.66855865  0.43723619     0.96650
C803        C  0.11726113  0.66355719  0.53416554     1.04090
O804        O  0.12099248  0.72359700  0.48815424    -1.13090
O805        O  0.09461425  0.77532601  0.52391892    -0.75530
O806        O  0.06120619  0.73593590  0.51791536    -0.79010
O807        O  0.14579296  0.67904526  0.44577979    -0.79700
C808        C  0.06942646  0.76154401  0.53027253     0.95560
O809        O  0.06529089  0.73002899  0.44960178    -0.77660
O810        O  0.15932904  0.76572731  0.51652203    -0.82850
C811        C  0.18008764  0.75861568  0.45553693     0.98180
C812        C  0.17695481  0.74797843  0.53172349     1.04100
O813        O  0.18722865  0.73164496  0.46511434    -0.78500
C814        C  0.06767280  0.75917698  0.44452526     1.02400
Fe815      Fe  0.00317816  0.83215457  0.56558804     1.65780
Fe816      Fe  0.00519832  0.76482930  0.60517936     1.73250
Fe817      Fe  0.00514995  0.83274994  0.64447090     1.54420
O818        O  0.03266229  0.86926889  0.62656227    -0.82230
O819        O  0.96639389  0.76489024  0.63277296    -0.80540
O820        O  0.04142099  0.85981510  0.57661689    -0.84740
O821        O  0.97026899  0.86478762  0.58177955    -0.79590
O822        O  0.04569292  0.81115267  0.65990427    -0.81370
O823        O  0.97760092  0.75859924  0.56798026    -0.84110
C824        C  0.95402223  0.86656176  0.60671748     0.96650
C825        C  0.04854285  0.87366819  0.60171731     1.04090
O826        O  0.00534887  0.81002618  0.60489207    -1.13090
O827        O  0.04323914  0.76174973  0.57736308    -0.75530
O828        O  0.03439455  0.80106989  0.54455140    -0.79010
O829        O  0.96331077  0.85412028  0.63192484    -0.79700
C830        C  0.04825224  0.77597844  0.55223769     0.95560
O831        O  0.96546618  0.80594528  0.55134444    -0.77660
O832        O  0.03373640  0.76416459  0.64193340    -0.82850
C833        C  0.96882315  0.77203347  0.66104604     0.98180
C834        C  0.04908194  0.78173481  0.65946936     1.04100
O835        O  0.98087948  0.79783827  0.66920569    -0.78500
C836        C  0.96178131  0.77666389  0.55153242     1.02400
Fe837      Fe  0.75238094  0.90774359  0.58808844     1.65780
Fe838      Fe  0.71999577  0.83337061  0.59685905     1.73250
Fe839      Fe  0.77326571  0.85973854  0.64571136     1.54420
O840        O  0.81363111  0.87782019  0.62847797    -0.82230
O841        O  0.69373266  0.84751112  0.63427678    -0.80540
O842        O  0.80257156  0.90626587  0.58666402    -0.84740
O843        O  0.75286547  0.93296394  0.62936323    -0.79590
O844        O  0.78545420  0.81925407  0.62517875    -0.81370
O845        O  0.68856501  0.86575926  0.57541689    -0.84110
C846        C  0.75380539  0.92606556  0.65808740     0.96650
C847        C  0.82229661  0.89436146  0.60574036     1.04090
O848        O  0.74938558  0.86738303  0.60908407    -1.13090
O849        O  0.71321595  0.85578100  0.55603311    -0.75530
O850        O  0.75280496  0.88476259  0.54485557    -0.79010
O851        O  0.76221632  0.89970799  0.66752671    -0.79700
C852        C  0.73893920  0.85890717  0.54153154     0.95560
O853        O  0.70253361  0.91231747  0.59182992    -0.77660
O854        O  0.73898212  0.79930056  0.62520160    -0.82850
C855        C  0.70437305  0.84504111  0.66168074     0.98180
C856        C  0.76740112  0.79760061  0.63239506     1.04100
O857        O  0.73350451  0.84259962  0.66743273    -0.78500
C858        C  0.68077307  0.89272879  0.58623768     1.02400
Fe859      Fe  0.89842887  0.61642116  0.73665748     1.65780
Fe860      Fe  0.83249422  0.64595502  0.70594469     1.73250
Fe861      Fe  0.86733584  0.68745458  0.76082567     1.54410
O862        O  0.89623263  0.66610049  0.79461278    -0.82230
O863        O  0.83833527  0.69075432  0.69355347    -0.80540
O864        O  0.89335459  0.61581278  0.78692823    -0.84740
O865        O  0.93360880  0.64936350  0.73427484    -0.79590
O866        O  0.83381317  0.66332176  0.78479322    -0.81370
O867        O  0.85889999  0.63588199  0.66837154    -0.84110
C868        C  0.93189774  0.67588334  0.74712717     0.96650
C869        C  0.89157327  0.63880245  0.80585624     1.04090
O870        O  0.86764463  0.65011291  0.73338200    -1.13090
O871        O  0.82454066  0.60023362  0.71325060    -0.75530
O872        O  0.86481337  0.58236467  0.74002590    -0.79010
O873        O  0.91372211  0.67898053  0.77056392    -0.79700
C874        C  0.83607493  0.58248073  0.73325086     0.95560
O875        O  0.90286002  0.61445907  0.68632605    -0.77660
O876        O  0.80297252  0.65610339  0.74359102    -0.82850
C877        C  0.82681012  0.71141458  0.71057199     0.98180
C878        C  0.80689529  0.65977263  0.77290184     1.04100
O879        O  0.83083109  0.71062953  0.73947042    -0.78500
C880        C  0.88550564  0.62411923  0.66380660     1.02400
Fe881      Fe  0.60407367  0.76374725  0.86607881     1.65780
Fe882      Fe  0.63429678  0.73565459  0.79920956     1.73250
Fe883      Fe  0.67595453  0.78666757  0.84228712     1.54410
O884        O  0.65256772  0.82737252  0.85071750    -0.82230
O885        O  0.68090683  0.72573713  0.79563053    -0.80540
O886        O  0.60994478  0.81257007  0.87665801    -0.84740
O887        O  0.63516512  0.74814792  0.89945151    -0.79590
O888        O  0.67888687  0.79788265  0.79555855    -0.81370
O889        O  0.62855811  0.69682148  0.82586715    -0.84110
C890        C  0.66360757  0.75599031  0.90272059     0.96650
C891        C  0.62826590  0.83401052  0.86652433     1.04090
O892        O  0.63832902  0.76222946  0.83599212    -1.13090
O893        O  0.58703449  0.74181299  0.79922445    -0.75530
O894        O  0.57483033  0.77976463  0.83045818    -0.79010
O895        O  0.67551735  0.77896292  0.88893359    -0.79700
C896        C  0.57645884  0.76883748  0.80299338     0.95560
O897        O  0.59405492  0.71465364  0.86066996    -0.77660
O898        O  0.64053132  0.77312955  0.77103167    -0.82850
C899        C  0.70336379  0.72795293  0.81445283     0.98180
C900        C  0.66148051  0.79394844  0.77203601     1.04100
O901        O  0.70342803  0.74782682  0.83620423    -0.78500
C902        C  0.60947362  0.69205735  0.84804209     1.02400
Fe903      Fe  0.81681275  0.59167437  0.98863335     1.65780
Fe904      Fe  0.75112831  0.63104993  0.00311540     1.73250
Fe905      Fe  0.81985015  0.67015755  0.99509451     1.54420
O906        O  0.85680592  0.65124651  0.02099583    -0.82230
O907        O  0.74554869  0.65970298  0.96711016    -0.80540
O908        O  0.84552004  0.60118089  0.02716779    -0.84740
O909        O  0.84802094  0.60851373  0.95364434    -0.79590
O910        O  0.80187441  0.68627948  0.03694380    -0.81370
O911        O  0.74060201  0.59482772  0.97385062    -0.84110
C912        C  0.84923022  0.63425859  0.93883256     0.96650
C913        C  0.85798431  0.62634959  0.03708246     1.04090
O914        O  0.79600303  0.63106877  0.99587542    -1.13090
O915        O  0.75380318  0.60148371  0.03945417    -0.75530
O916        O  0.78721289  0.56741221  0.01894834    -0.79010
O917        O  0.83889106  0.65893917  0.95160380    -0.79700
C918        C  0.76460818  0.57431305  0.03706076     0.95560
O919        O  0.78636941  0.58173254  0.95264190    -0.77660
O920        O  0.75381599  0.66758132  0.03274030    -0.82850
C921        C  0.75774915  0.68582442  0.96184243     0.98180
C922        C  0.77343324  0.68551385  0.04518238     1.04100
O923        O  0.78442881  0.69397991  0.97186936    -0.78500
C924        C  0.75651174  0.58146397  0.95299452     1.02400
Fe925      Fe  0.68670924  0.51997489  0.91042244     1.65780
Fe926      Fe  0.75221391  0.52999634  0.86839913     1.73250
Fe927      Fe  0.68432741  0.51781834  0.83060376     1.54420
O928        O  0.65638790  0.48186722  0.84695085    -0.82230
O929        O  0.73900603  0.56863632  0.84529263    -0.80540
O930        O  0.66016407  0.48032909  0.89809087    -0.84740
O931        O  0.65244032  0.55353086  0.89666200    -0.79590
O932        O  0.71421644  0.48447375  0.81157119    -0.81370
O933        O  0.75708075  0.55515387  0.90681441    -0.84110
C934        C  0.64452624  0.56472687  0.87013845     0.96650
C935        C  0.65115982  0.46823251  0.87257780     1.04090
O936        O  0.70776027  0.52119396  0.87018838    -1.13090
O937        O  0.76391177  0.49195133  0.89391089    -0.75530
O938        O  0.72145184  0.48909343  0.92529830    -0.79010
O939        O  0.65412271  0.55251784  0.84491212    -0.79700
C940        C  0.74919264  0.48080586  0.91705519     0.95560
O941        O  0.71150648  0.55682290  0.93087126    -0.77660
O942        O  0.75772188  0.50527358  0.82912326    -0.82850
C943        C  0.73494144  0.56524291  0.81668321     0.98180
C944        C  0.74359735  0.48834321  0.80999945     1.04100
O945        O  0.71098143  0.55094207  0.80714311    -0.78500
C946        C  0.74029397  0.56387464  0.92887848     1.02400
Fe947      Fe  0.81552252  0.44168219  0.98210003     1.65780
Fe948      Fe  0.75288623  0.39699140  0.97034170     1.73250
Fe949      Fe  0.82309876  0.36257399  0.98180314     1.54410
O950        O  0.85126655  0.37881016  0.94547619    -0.82230
O951        O  0.74905455  0.35669091  0.99474419    -0.80540
O952        O  0.85234939  0.43050425  0.95170271    -0.84740
O953        O  0.83925697  0.42985712  0.02280815    -0.79590
O954        O  0.79618430  0.33770009  0.94981892    -0.81370
O955        O  0.73869935  0.42137855  0.00882056    -0.84110
C956        C  0.85207554  0.40517082  0.03284350     0.96650
C957        C  0.85971789  0.40586823  0.93668718     1.04090
O958        O  0.79712723  0.40069192  0.97963388    -1.13090
O959        O  0.74709038  0.43617443  0.94587271    -0.75530
O960        O  0.79296768  0.45930981  0.94304336    -0.79010
O961        O  0.85204543  0.38001692  0.01713672    -0.79700
C962        C  0.76438179  0.45726921  0.93584360     0.95560
O963        O  0.77861887  0.45537050  0.01049209    -0.77660
O964        O  0.76810772  0.37542379  0.93123553    -0.82850
C965        C  0.76488925  0.34134273  0.01402394     0.98180
C966        C  0.77323374  0.34690151  0.93374401     1.04100
O967        O  0.79445150  0.34373413  0.01632899    -0.78500
C968        C  0.75172096  0.44571670  0.01929415     1.02400
Fe969      Fe  0.68652412  0.51126430  0.06222920     1.65780
Fe970      Fe  0.75190431  0.49949572  0.10215511     1.73250
Fe971      Fe  0.68513477  0.51335713  0.14269981     1.54410
O972        O  0.65784838  0.55083466  0.12710587    -0.82230
O973        O  0.73929150  0.46167834  0.12702949    -0.80540
O974        O  0.66198120  0.55084171  0.07562672    -0.84740
O975        O  0.65214686  0.47919624  0.07657841    -0.79590
O976        O  0.71636757  0.54557339  0.16188921    -0.81370
O977        O  0.75454703  0.47295293  0.06436829    -0.84110
C978        C  0.64508573  0.46706399  0.10284771     0.96650
C979        C  0.65385359  0.56392739  0.10089076     1.04090
O980        O  0.70783542  0.50934764  0.10212282    -1.13090
O981        O  0.76382490  0.53707429  0.07619438    -0.75530
O982        O  0.72133190  0.54182663  0.04600904    -0.79010
O983        O  0.65428424  0.47895761  0.12834430    -0.79700
C984        C  0.74900809  0.54968845  0.05419990     0.95560
O985        O  0.70868699  0.47310444  0.04152436    -0.77660
O986        O  0.75824019  0.52519036  0.14005987    -0.82850
C987        C  0.73642919  0.46657606  0.15562964     0.98180
C988        C  0.74581863  0.54148154  0.16090057     1.04100
O989        O  0.71157306  0.47935181  0.16565578    -0.78500
C990        C  0.73674467  0.46411350  0.04338687     1.02400
Fe991      Fe  0.61209100  0.26459377  0.88406493     1.65780
Fe992      Fe  0.68267031  0.23624661  0.86235453     1.73250
Fe993      Fe  0.64817920  0.28955806  0.81901124     1.54420
O994        O  0.60080404  0.29041277  0.81719402    -0.82230
O995        O  0.71238779  0.27423150  0.86338627    -0.80540
O996        O  0.58325792  0.25342556  0.84712034    -0.84740
O997        O  0.60727509  0.31495128  0.87955088    -0.79590
O998        O  0.65134158  0.24947170  0.79179996    -0.81370
O999        O  0.67369409  0.23774967  0.90885688    -0.84110
C1000       C  0.62430319  0.33585168  0.86599792     0.96650
C1001       C  0.58556221  0.26588571  0.82055217     1.04090
O1002       O  0.64771570  0.26380399  0.85549717    -1.13090
O1003       O  0.65399298  0.19833618  0.86027657    -0.75530
O1004       O  0.61413746  0.21457267  0.89029091    -0.79010
O1005       O  0.64479721  0.32855279  0.84577812    -0.79700
C1006       C  0.62948079  0.19273671  0.87611972     0.95560
O1007       O  0.64183213  0.27518636  0.92066426    -0.77660
O1008       O  0.69267327  0.23085285  0.81605035    -0.82850
C1009       C  0.71510465  0.29343585  0.84103701     0.98180
C1010       C  0.67316183  0.22941594  0.79412349     1.04100
O1011       O  0.69578711  0.29425224  0.81884274    -0.78500
C1012       C  0.66915380  0.26379075  0.92119958     1.02400
Fe1013     Fe  0.90085563  0.40360549  0.73628035     1.65780
Fe1014     Fe  0.88746251  0.33467519  0.77126585     1.73250
Fe1015     Fe  0.83780653  0.36148501  0.71829621     1.54410
O1016       O  0.82782919  0.40780386  0.71493820    -0.82230
O1017       O  0.88901308  0.30193066  0.73681506    -0.80540
O1018       O  0.86240777  0.43081474  0.74477645    -0.84740
O1019       O  0.89412423  0.40323588  0.68653315    -0.79590
O1020       O  0.81401619  0.35993152  0.76035423    -0.81370
O1021       O  0.93380328  0.34508811  0.76590672    -0.84110
C1022       C  0.88071315  0.38427647  0.66752337     0.96650
C1023       C  0.83510061  0.42880974  0.73393981     1.04090
O1024       O  0.87579878  0.36658559  0.74142086    -1.13090
O1025       O  0.88457396  0.36557827  0.80672734    -0.75530
O1026       O  0.90809903  0.40718226  0.78597343    -0.79010
O1027       O  0.86129485  0.36387413  0.67667637    -0.79700
C1028       C  0.89609183  0.39246538  0.80934319     0.95560
O1029       O  0.93977759  0.37639317  0.72680111    -0.77660
O1030       O  0.84220540  0.32227744  0.78083863    -0.82850
C1031       C  0.86500124  0.29530725  0.72124085     0.98180
C1032       C  0.81882276  0.34021450  0.78184361     1.04100
O1033       O  0.84265167  0.31414899  0.71707596    -0.78500
C1034       C  0.94503280  0.35033565  0.73930751     1.02400
Fe1035     Fe  0.75305290  0.12184460  0.59965727     1.65780
Fe1036     Fe  0.78009941  0.12917876  0.67261725     1.73250
Fe1037     Fe  0.73625235  0.18459473  0.64295753     1.54420
O1038       O  0.73751718  0.19547726  0.59714443    -0.82230
O1039       O  0.73878413  0.12894127  0.69953508    -0.80540
O1040       O  0.76770698  0.16003909  0.57470638    -0.84740
O1041       O  0.70368395  0.13301983  0.59569203    -0.79590
O1042       O  0.77933566  0.20472241  0.65105860    -0.81370
O1043       O  0.77506019  0.08460991  0.65751429    -0.84110
C1044       C  0.68417965  0.14790010  0.61346022     0.96650
C1045       C  0.75788195  0.18767035  0.57754866     1.04090
O1046       O  0.75653657  0.14515422  0.63791467    -1.13090
O1047       O  0.81991957  0.13068873  0.64636606    -0.75530
O1048       O  0.80252368  0.11097695  0.60126131    -0.79010
O1049       O  0.69349686  0.16487804  0.63574929    -0.79700
C1050       C  0.82497004  0.12010516  0.61915864     0.95560
O1051       O  0.73755451  0.08301819  0.62419932    -0.77660
O1052       O  0.79127836  0.17233675  0.68936172    -0.82850
C1053       C  0.72407704  0.15446505  0.70413656     0.98180
C1054       C  0.79534252  0.19764470  0.67490267     1.04100
O1055       O  0.73109042  0.17873701  0.68929281    -0.78500
C1056       C  0.74867969  0.07482059  0.65007028     1.02400
C1057       C  0.84315089  0.24522127  0.73092680    -0.20860
C1058       C  0.85975977  0.26399328  0.71026578    -0.07430
C1059       C  0.85836656  0.25846565  0.67811797     0.13440
C1060       C  0.83770713  0.23597570  0.66697498    -0.20920
C1061       C  0.81845865  0.21932844  0.68750656    -0.07430
C1062       C  0.82181913  0.22338763  0.72004488     0.13430
C1063       C  0.80115846  0.20710165  0.74349663    -0.24260
H1064       H  0.84395460  0.25042215  0.75560184     0.14720
H1065       H  0.83616610  0.23189453  0.64223757     0.14740
C1066       C  0.87697984  0.27773661  0.65546419    -0.24210
H1067       H  0.80517147  0.21564779  0.76751126     0.04960
H1068       H  0.80606431  0.18177991  0.74348908     0.08180
H1069       H  0.77621460  0.21129292  0.73797991     0.08180
H1070       H  0.89422529  0.29269675  0.66739268     0.08170
H1071       H  0.86125371  0.29321222  0.64229690     0.08170
H1072       H  0.88985775  0.26230348  0.63912923     0.04940
C1073       C  0.76703866  0.35179177  0.80459106    -0.20860
C1074       C  0.79536111  0.33578269  0.80679946    -0.07430
C1075       C  0.79879811  0.31320500  0.83067806     0.13440
C1076       C  0.77195554  0.30121826  0.84495188    -0.20920
C1077       C  0.74266791  0.31350078  0.83795834    -0.07430
C1078       C  0.74088753  0.34158521  0.82095673     0.13430
C1079       C  0.71159599  0.36067275  0.81886141    -0.24260
H1080       H  0.76467644  0.37127773  0.78883022     0.14720
H1081       H  0.77378702  0.28103756  0.85988222     0.14740
C1082       C  0.82983885  0.30062395  0.84109419    -0.24210
H1083       H  0.70270309  0.36058184  0.79469453     0.04960
H1084       H  0.69347653  0.35212893  0.83489879     0.08180
H1085       H  0.71665966  0.38490299  0.82607783     0.08180
H1086       H  0.83001473  0.29887859  0.86684750     0.08170
H1087       H  0.84942841  0.31628476  0.83499006     0.08170
H1088       H  0.83375458  0.27713474  0.83105494     0.04940
C1089       C  0.69478686  0.17754811  0.78130004    -0.20860
C1090       C  0.67743748  0.20367700  0.77149536    -0.07430
C1091       C  0.66784600  0.20527007  0.74025293     0.13440
C1092       C  0.67685940  0.18136457  0.71986047    -0.20920
C1093       C  0.70011014  0.15972777  0.72828173    -0.07430
C1094       C  0.70759342  0.15651779  0.75979936     0.13430
C1095       C  0.73142504  0.13323960  0.77032155    -0.24260
H1096       H  0.70119867  0.17535465  0.80551289     0.14720
H1097       H  0.67080997  0.18344293  0.69551705     0.14740
C1098       C  0.65203842  0.23365234  0.72708243    -0.24210
H1099       H  0.73442561  0.13365278  0.79592803     0.04960
H1100       H  0.75441557  0.13814725  0.75936605     0.08180
H1101       H  0.72361067  0.10977531  0.76353835     0.08180
H1102       H  0.66736058  0.25421045  0.73008086     0.08170
H1103       H  0.62957115  0.23816493  0.73893474     0.08170
H1104       H  0.64721620  0.23104415  0.70188659     0.04940
C1105       C  0.85883944  0.42538477  0.88240637    -0.20860
C1106       C  0.87517914  0.40913200  0.90547914    -0.07430
C1107       C  0.90257838  0.39291023  0.89668051     0.13440
C1108       C  0.91170289  0.39169947  0.86497496    -0.20920
C1109       C  0.89382731  0.40580405  0.84145668    -0.07430
C1110       C  0.86724027  0.42332276  0.85071826     0.13430
C1111       C  0.84546208  0.43783442  0.82759897    -0.24260
H1112       H  0.83759692  0.43766210  0.88878955     0.14720
H1113       H  0.93152826  0.37747106  0.85822058     0.14740
C1114       C  0.92182468  0.37635186  0.92062824    -0.24210
H1115       H  0.85361161  0.43465362  0.80342572     0.04960
H1116       H  0.82194970  0.42718028  0.82977709     0.08180
H1117       H  0.84351268  0.46317612  0.83216787     0.08180
H1118       H  0.90784275  0.35778550  0.93186714     0.08170
H1119       H  0.92954092  0.39320855  0.93857429     0.08170
H1120       H  0.94291449  0.36543771  0.91011847     0.04940
C1121       C  0.75129182  0.29361268  0.93504249    -0.20860
C1122       C  0.74791821  0.32487515  0.92613190    -0.07430
C1123       C  0.71849333  0.33527626  0.91521598     0.13440
C1124       C  0.69325600  0.31494741  0.91598065    -0.20920
C1125       C  0.69616630  0.28429785  0.92625341    -0.07430
C1126       C  0.72603189  0.27298052  0.93437818     0.13430
C1127       C  0.73184957  0.23910801  0.94102329    -0.24260
H1128       H  0.77380664  0.28519086  0.94271318     0.14720
H1129       H  0.67135344  0.32249728  0.90638077     0.14740
C1130       C  0.71286253  0.36752033  0.90251605    -0.24210
H1131       H  0.75553016  0.23510121  0.95056562     0.04960
H1132       H  0.73000940  0.22544635  0.91921591     0.08180
H1133       H  0.71444681  0.23035331  0.95793106     0.08180
H1134       H  0.73061617  0.37304604  0.88447596     0.08170
H1135       H  0.71346888  0.38495536  0.92152283     0.08170
H1136       H  0.68963341  0.36964137  0.89148814     0.04940
C1137       C  0.79339555  0.48917113  0.78129266    -0.20860
C1138       C  0.76383885  0.47509030  0.78523497    -0.07430
C1139       C  0.75617514  0.44927849  0.76668602     0.13440
C1140       C  0.77945057  0.43626981  0.74754481    -0.20920
C1141       C  0.80998848  0.44862225  0.74650351    -0.07430
C1142       C  0.81638924  0.47658111  0.76214976     0.13430
C1143       C  0.84735708  0.49321730  0.75945575    -0.24260
H1144       H  0.79931432  0.50991294  0.79424363     0.14720
H1145       H  0.77423894  0.41506783  0.73498561     0.14740
C1146       C  0.72433526  0.43461918  0.76782890    -0.24210
H1147       H  0.84691769  0.51608212  0.77142086     0.04960
H1148       H  0.85307935  0.49733943  0.73461602     0.08180
H1149       H  0.86626065  0.47971934  0.77054203     0.08180
H1150       H  0.70653793  0.45170689  0.76020416     0.08170
H1151       H  0.71890842  0.42703445  0.79183691     0.08170
H1152       H  0.72284392  0.41397595  0.75236212     0.04940
C1153       C  0.63292230  0.41843421  0.89978961    -0.20860
C1154       C  0.63615740  0.43595969  0.87206564    -0.07430
C1155       C  0.62765245  0.42075189  0.84384200     0.13440
C1156       C  0.62048098  0.38876300  0.84383256    -0.20920
C1157       C  0.62070163  0.37055664  0.87090179    -0.07430
C1158       C  0.62466849  0.38629007  0.89959003     0.13430
C1159       C  0.62036213  0.36950305  0.92993526    -0.24260
H1160       H  0.63790474  0.42958902  0.92178321     0.14720
H1161       H  0.61646087  0.37720267  0.82180025     0.14740
C1162       C  0.62696736  0.43723567  0.81292157    -0.24210
H1163       H  0.62362034  0.38531819  0.95008332     0.04960
H1164       H  0.63724104  0.35026348  0.93215668     0.08180
H1165       H  0.59636585  0.35990536  0.93125047     0.08180
H1166       H  0.65093294  0.44388892  0.80566975     0.08170
H1167       H  0.61168938  0.45806510  0.81453201     0.08170
H1168       H  0.61751844  0.42221865  0.79419255     0.04940
C1169       C  0.60411907  0.63618076  0.83445211    -0.20860
C1170       C  0.60658965  0.65848840  0.85819312    -0.07430
C1171       C  0.61437331  0.64751518  0.88834045     0.13440
C1172       C  0.62435080  0.61617833  0.89239595    -0.20920
C1173       C  0.62576377  0.59479942  0.86741960    -0.07430
C1174       C  0.61284906  0.60480169  0.83859954     0.13430
C1175       C  0.60875230  0.58308158  0.81132133    -0.24260
H1176       H  0.59722265  0.64391966  0.81153470     0.14720
H1177       H  0.63276328  0.60903442  0.91496605     0.14740
C1178       C  0.61381226  0.66831439  0.91653651    -0.24210
H1179       H  0.59434429  0.59377715  0.79282625     0.04960
H1180       H  0.59667105  0.56157985  0.81898298     0.08180
H1181       H  0.63164798  0.57733105  0.80058108     0.08180
H1182       H  0.60625328  0.69228138  0.91125092     0.08170
H1183       H  0.63727279  0.66931805  0.92722036     0.08170
H1184       H  0.59722407  0.65868638  0.93392729     0.04940
C1185       C  0.70079473  0.74973772  0.94512944    -0.20860
C1186       C  0.68535094  0.73655748  0.91985886    -0.07430
C1187       C  0.69675568  0.70853220  0.90665471     0.13440
C1188       C  0.72308831  0.69457876  0.91893673    -0.20920
C1189       C  0.73797235  0.70713506  0.94469891    -0.07430
C1190       C  0.72649983  0.73476425  0.95831767     0.13430
C1191       C  0.73959585  0.74708873  0.98799192    -0.24260
H1192       H  0.69251370  0.77162687  0.95466585     0.14720
H1193       H  0.73134226  0.67274546  0.90912302     0.14740
C1194       C  0.68258297  0.69261056  0.87925528    -0.24210
H1195       H  0.72709610  0.76839634  0.99566926     0.04960
H1196       H  0.76470561  0.75263768  0.98497835     0.08180
H1197       H  0.73655437  0.72917376  0.00618448     0.08180
H1198       H  0.66400510  0.70664702  0.86891787     0.08170
H1199       H  0.67350156  0.66960790  0.88625926     0.08170
H1200       H  0.70073304  0.68814961  0.86148697     0.04940
C1201       C  0.72450606  0.67989931  0.79109201    -0.20860
C1202       C  0.72956516  0.70574875  0.81047497    -0.07430
C1203       C  0.75903684  0.70924240  0.82476985     0.13440
C1204       C  0.78338780  0.68927137  0.81589661    -0.20920
C1205       C  0.77933981  0.66710895  0.79218859    -0.07430
C1206       C  0.74892051  0.66060781  0.78170307     0.13430
C1207       C  0.74143435  0.63472685  0.75934904    -0.24260
H1208       H  0.70148953  0.67536073  0.78183394     0.14720
H1209       H  0.80653186  0.69360116  0.82491795     0.14740
C1210       C  0.76591917  0.73486017  0.84768999    -0.24210
H1211       H  0.73275843  0.64462047  0.73722519     0.04960
H1212       H  0.72299165  0.61970304  0.76954951     0.08180
H1213       H  0.76182255  0.61978577  0.75420163     0.08180
H1214       H  0.75055383  0.73260565  0.86839745     0.08170
H1215       H  0.76231151  0.75785557  0.83661197     0.08170
H1216       H  0.79041392  0.73397427  0.85592688     0.04940
C1217       C  0.87131429  0.66277431  0.85542398    -0.20860
C1218       C  0.88306591  0.63597147  0.84044708    -0.07430
C1219       C  0.88439731  0.60839250  0.85859541     0.13440
C1220       C  0.87427993  0.60865363  0.89040738    -0.20920
C1221       C  0.86213167  0.63563645  0.90527381    -0.07430
C1222       C  0.86060582  0.66306770  0.88664383     0.13430
C1223       C  0.84686193  0.69315499  0.89867158    -0.24260
H1224       H  0.86945580  0.68402349  0.84210318     0.14720
H1225       H  0.87542762  0.58728250  0.90360320     0.14740
C1226       C  0.89657317  0.57857537  0.84474055    -0.24210
H1227       H  0.84730999  0.71182448  0.88088941     0.04960
H1228       H  0.86048066  0.70164442  0.91880722     0.08180
H1229       H  0.82204312  0.68965492  0.90536539     0.08180
H1230       H  0.92072155  0.58206846  0.83592548     0.08170
H1231       H  0.88136990  0.57102893  0.82539723     0.08170
H1232       H  0.89705732  0.55954423  0.86212225     0.04940
C1233       C  0.75973667  0.55621594  0.76520037    -0.20860
C1234       C  0.76182824  0.56902929  0.79533326    -0.07430
C1235       C  0.79093978  0.58081749  0.80557887     0.13440
C1236       C  0.81649848  0.57971169  0.78545296    -0.20920
C1237       C  0.81376888  0.56887287  0.75493561    -0.07430
C1238       C  0.78534354  0.55619815  0.74483206     0.13430
C1239       C  0.78218630  0.54238110  0.71280047    -0.24260
H1240       H  0.73802047  0.54609687  0.75740788     0.14720
H1241       H  0.83814685  0.59029958  0.79272466     0.14740
C1242       C  0.79558143  0.59584030  0.83699900    -0.24210
H1243       H  0.75876768  0.53196292  0.70934397     0.04960
H1244       H  0.79988811  0.52376608  0.70949024     0.08180
H1245       H  0.78557269  0.56043254  0.69475953     0.08180
H1246       H  0.81898908  0.60659427  0.83911561     0.08170
H1247       H  0.77812018  0.61462335  0.84062874     0.08170
H1248       H  0.79371532  0.57820995  0.85568124     0.04940
C1249       C  0.69276869  0.85454409  0.71628228    -0.20860
C1250       C  0.68328561  0.84129848  0.68815378    -0.07430
C1251       C  0.66045089  0.81787017  0.68812073     0.13440
C1252       C  0.65213628  0.80420889  0.71635633    -0.20920
C1253       C  0.66597237  0.81375081  0.74438112    -0.07430
C1254       C  0.68454670  0.84101127  0.74461867     0.13430
C1255       C  0.69701053  0.85545494  0.77399918    -0.24260
H1256       H  0.70940376  0.87353585  0.71588760     0.14720
H1257       H  0.63630411  0.78460724  0.71610324     0.14740
C1258       C  0.64680822  0.80542753  0.65841336    -0.24210
H1259       H  0.70910060  0.87770632  0.76921427     0.04960
H1260       H  0.71444674  0.83991244  0.78489614     0.08180
H1261       H  0.67752758  0.86035931  0.79045120     0.08180
H1262       H  0.66540671  0.79477663  0.64377795     0.08170
H1263       H  0.63548374  0.82466121  0.64549108     0.08170
H1264       H  0.62885583  0.78738172  0.66296409     0.04940
C1265       C  0.79676235  0.78659350  0.67934153    -0.20860
C1266       C  0.77809124  0.77519382  0.65517488    -0.07430
C1267       C  0.77113549  0.74340931  0.65317899     0.13440
C1268       C  0.78569724  0.72323458  0.67384553    -0.20920
C1269       C  0.80687151  0.73438835  0.69606953    -0.07430
C1270       C  0.81147905  0.76656249  0.69990531     0.13430
C1271       C  0.83302507  0.78077178  0.72360197    -0.24260
H1272       H  0.80091575  0.81138590  0.68145686     0.14720
H1273       H  0.78188436  0.69840894  0.67159354     0.14740
C1274       C  0.75007279  0.73062638  0.62835973    -0.24210
H1275       H  0.81948837  0.79674470  0.73890781     0.04960
H1276       H  0.85147816  0.79430535  0.71150576     0.08180
H1277       H  0.84479532  0.76368039  0.73858343     0.08180
H1278       H  0.75932708  0.73686420  0.60502974     0.08170
H1279       H  0.72622428  0.74036961  0.63126073     0.08170
H1280       H  0.74829552  0.70490479  0.62960379     0.04940
C1281       C  0.94309539  0.75633716  0.71073560    -0.20860
C1282       C  0.96129381  0.74816607  0.68474701    -0.07430
C1283       C  0.97393332  0.71756322  0.68301198     0.13440
C1284       C  0.96652386  0.69606885  0.70612721    -0.20920
C1285       C  0.94548982  0.70298298  0.73021880    -0.07430
C1286       C  0.93460067  0.73409802  0.73331477     0.13430
C1287       C  0.91356651  0.74418459  0.75962877    -0.24260
H1288       H  0.93446566  0.77996652  0.71271554     0.14720
H1289       H  0.97603558  0.67274957  0.70410611     0.14740
C1290       C  0.99558203  0.70574704  0.65773152    -0.24210
H1291       H  0.90879392  0.76956398  0.75900257     0.04960
H1292       H  0.92471810  0.73885692  0.78219712     0.08180
H1293       H  0.89081480  0.73224077  0.75801815     0.08180
H1294       H  0.01901376  0.70133803  0.66766717     0.08170
H1295       H  0.99821334  0.72123088  0.63767724     0.08170
H1296       H  0.98659112  0.68341848  0.64844637     0.04940
C1297       C  0.90638965  0.88451622  0.57702289    -0.20860
C1298       C  0.92219282  0.88191145  0.60570730    -0.07430
C1299       C  0.90590473  0.89164510  0.63289486     0.13440
C1300       C  0.87399620  0.89941817  0.63116214    -0.20920
C1301       C  0.85722471  0.89803182  0.60313600    -0.07430
C1302       C  0.87436883  0.89288346  0.57547881     0.13430
C1303       C  0.85862520  0.89502708  0.54457964    -0.24260
H1304       H  0.91861733  0.87845500  0.55573213     0.14720
H1305       H  0.86138490  0.90462188  0.65248328     0.14740
C1306       C  0.92150133  0.89350179  0.66415088    -0.24210
H1307       H  0.87485998  0.88942749  0.52512165     0.04960
H1308       H  0.84965395  0.91898785  0.54115281     0.08180
H1309       H  0.83880107  0.87865605  0.54412419     0.08180
H1310       H  0.94305150  0.90770074  0.66233215     0.08170
H1311       H  0.92717635  0.86988773  0.67272955     0.08170
H1312       H  0.90612316  0.90457350  0.68188642     0.04940
C1313       C  0.87564388  0.62565311  0.57658258    -0.20860
C1314       C  0.89597782  0.64988301  0.56822016    -0.07430
C1315       C  0.91789475  0.66005113  0.59087387     0.13440
C1316       C  0.91737861  0.64739712  0.62127603    -0.20920
C1317       C  0.89542072  0.62490731  0.63026715    -0.07430
C1318       C  0.87521810  0.61305642  0.60698104     0.13430
C1319       C  0.85218008  0.58768894  0.61458754    -0.24260
H1320       H  0.85914805  0.61726549  0.55955032     0.14720
H1321       H  0.93220312  0.65737944  0.63898281     0.14740
C1322       C  0.94017898  0.68630639  0.58416761    -0.24210
H1323       H  0.83894442  0.58027543  0.59375464     0.04960
H1324       H  0.83502752  0.59575673  0.63226758     0.08180
H1325       H  0.86483143  0.56712338  0.62367396     0.08180
H1326       H  0.92696704  0.70726870  0.57695005     0.08170
H1327       H  0.95688330  0.67937955  0.56558174     0.08170
H1328       H  0.95399002  0.69275423  0.60485777     0.04940
C1329       C  0.77128094  0.77556295  0.53319902    -0.20860
C1330       C  0.80275545  0.78200897  0.52651378    -0.07430
C1331       C  0.81105386  0.81333695  0.51952230     0.13440
C1332       C  0.78860037  0.83689820  0.52166799    -0.20920
C1333       C  0.75804536  0.83115225  0.53175780    -0.07430
C1334       C  0.74872827  0.79959453  0.53560962     0.13430
C1335       C  0.71515758  0.79063493  0.54107822    -0.24260
H1336       H  0.76432092  0.75164590  0.53688428     0.14720
H1337       H  0.79550266  0.86054855  0.51655898     0.14740
C1338       C  0.84360270  0.82297469  0.50985399    -0.24210
H1339       H  0.71197773  0.76502749  0.54019662     0.04960
H1340       H  0.70031907  0.80100364  0.52276378     0.08180
H1341       H  0.70691698  0.79840714  0.56420533     0.08180
H1342       H  0.85210957  0.80855906  0.49037883     0.08170
H1343       H  0.84439640  0.84720756  0.50123130     0.08170
H1344       H  0.85974411  0.82101974  0.52981111     0.04940
C1345       C  0.59732976  0.16669845  0.62324447    -0.20860
C1346       C  0.58377634  0.13693615  0.62401462    -0.07430
C1347       C  0.60255537  0.11150489  0.61384908     0.13440
C1348       C  0.63443582  0.11633941  0.60577367    -0.20920
C1349       C  0.64903218  0.14533205  0.61020479    -0.07430
C1350       C  0.62935324  0.17120083  0.61687846     0.13430
C1351       C  0.64182784  0.20400403  0.61716126    -0.24260
H1352       H  0.58324698  0.18663716  0.62981001     0.14720
H1353       H  0.64838113  0.09685420  0.59788914     0.14740
C1354       C  0.58938094  0.07915669  0.61171323    -0.24210
H1355       H  0.62272925  0.22141728  0.61897860     0.04960
H1356       H  0.65484236  0.20858568  0.59524489     0.08180
H1357       H  0.65728735  0.20781126  0.63733292     0.08180
H1358       H  0.56844623  0.07921427  0.59666765     0.08170
H1359       H  0.58302216  0.07056841  0.63519366     0.08170
H1360       H  0.60657417  0.06253695  0.60164386     0.04940
C1361       C  0.55908939  0.24517836  0.73960765    -0.20860
C1362       C  0.56825509  0.21393760  0.73838409    -0.07430
C1363       C  0.58579792  0.20115847  0.76285634     0.13440
C1364       C  0.58986311  0.21849068  0.78985540    -0.20920
C1365       C  0.57756974  0.24854264  0.79256440    -0.07430
C1366       C  0.56353409  0.26278547  0.76662686     0.13430
C1367       C  0.55180237  0.29580961  0.76793283    -0.24260
H1368       H  0.54546351  0.25472723  0.72078365     0.14720
H1369       H  0.60332816  0.20877100  0.80871373     0.14740
C1370       C  0.59881169  0.16858882  0.76093531    -0.24210
H1371       H  0.53930164  0.30230878  0.74637416     0.04960
H1372       H  0.57165397  0.31207138  0.77068178     0.08180
H1373       H  0.53543918  0.29867287  0.78784030     0.08180
H1374       H  0.61352999  0.16619571  0.73976521     0.08170
H1375       H  0.57973481  0.15135013  0.75982594     0.08170
H1376       H  0.61334756  0.16290506  0.78143651     0.04940
C1377       C  0.58954000  0.83519587  0.74631843    -0.20860
C1378       C  0.57189994  0.82593186  0.72109414    -0.07430
C1379       C  0.55975836  0.79540931  0.72043163     0.13440
C1380       C  0.56126727  0.77696503  0.74742386    -0.20920
C1381       C  0.57338102  0.78916683  0.77516086    -0.07430
C1382       C  0.58816204  0.81857443  0.77387736     0.13430
C1383       C  0.60261255  0.83296660  0.80141224    -0.24260
H1384       H  0.59956699  0.85837175  0.74627590     0.14720
H1385       H  0.55186202  0.75360562  0.74723473     0.14740
C1386       C  0.54415693  0.78295376  0.69180355    -0.24210
H1387       H  0.61542584  0.85480367  0.79619287     0.04960
H1388       H  0.61904488  0.81584348  0.81054023     0.08180
H1389       H  0.58404139  0.83824106  0.81831202     0.08180
H1390       H  0.56077449  0.78381123  0.67190781     0.08170
H1391       H  0.52323572  0.79698247  0.68623866     0.08170
H1392       H  0.53661818  0.75847402  0.69495558     0.04940
C1393       C  0.63919579  0.92295535  0.61544761    -0.20860
C1394       C  0.64653623  0.90049144  0.59268103    -0.07430
C1395       C  0.62102863  0.88412668  0.57921863     0.13440
C1396       C  0.58991868  0.88977313  0.58959457    -0.20920
C1397       C  0.58271786  0.91145106  0.61321265    -0.07430
C1398       C  0.60820694  0.92847023  0.62598570     0.13430
C1399       C  0.60355664  0.95128812  0.65228709    -0.24260
H1400       H  0.65813490  0.93535903  0.62639131     0.14720
H1401       H  0.57102661  0.87648492  0.57957275     0.14740
C1402       C  0.62611239  0.86053697  0.55373753    -0.24210
H1403       H  0.62596811  0.96140344  0.66025463     0.04960
H1404       H  0.59267628  0.93935584  0.67246249     0.08180
H1405       H  0.58856376  0.97084456  0.64464775     0.08180
H1406       H  0.63896750  0.84011817  0.56280401     0.08170
H1407       H  0.63941187  0.87123632  0.53428866     0.08170
H1408       H  0.60369067  0.85187871  0.54428844     0.04940
C1409       C  0.74386444  0.05286890  0.70280589    -0.20860
C1410       C  0.72910927  0.06097190  0.67484236    -0.07430
C1411       C  0.69636049  0.06378539  0.67465552     0.13440
C1412       C  0.68017157  0.06449806  0.70275335    -0.20920
C1413       C  0.69534350  0.06042517  0.73125555    -0.07430
C1414       C  0.72740694  0.05218532  0.73106319     0.13430
C1415       C  0.74477690  0.04309476  0.76005300    -0.24260
H1416       H  0.76887352  0.04905578  0.70288424     0.14720
H1417       H  0.65522000  0.06856052  0.70221318     0.14740
C1418       C  0.67818983  0.06857993  0.64550910    -0.24210
H1419       H  0.76984025  0.03843808  0.75518365     0.04960
H1420       H  0.73470877  0.02146818  0.76981861     0.08180
H1421       H  0.74349557  0.06188708  0.77768104     0.08180
H1422       H  0.68471195  0.05113637  0.62761869     0.08170
H1423       H  0.68330968  0.09209203  0.63705342     0.08170
H1424       H  0.65261882  0.06689898  0.64956773     0.04940
C1425       C  0.59016457  0.11435750  0.85946452    -0.20860
C1426       C  0.61562321  0.09376675  0.86338421    -0.07430
C1427       C  0.64254879  0.10569170  0.87846478     0.13440
C1428       C  0.64471156  0.13773473  0.88522279    -0.20920
C1429       C  0.62072900  0.15884768  0.87810447    -0.07430
C1430       C  0.59231924  0.14654655  0.86685222     0.13430
C1431       C  0.56470601  0.16741757  0.86141488    -0.24260
H1432       H  0.56912340  0.10574679  0.84864148     0.14720
H1433       H  0.66632234  0.14678911  0.89453951     0.14740
C1434       C  0.66970668  0.08514714  0.88709917    -0.24210
H1435       H  0.54441057  0.15426191  0.85238290     0.04960
H1436       H  0.57069192  0.18566325  0.84435621     0.08180
H1437       H  0.55761519  0.17864454  0.88362151     0.08180
H1438       H  0.68275893  0.07761952  0.86605466     0.08170
H1439       H  0.66116499  0.06457694  0.90014480     0.08170
H1440       H  0.68656514  0.09756658  0.90216278     0.04940
C1441       C  0.64796264  0.88813847  0.86986178    -0.20860
C1442       C  0.62178779  0.86854646  0.87020740    -0.07430
C1443       C  0.59204672  0.88293923  0.86760300     0.13440
C1444       C  0.59002691  0.91480871  0.85852305    -0.20920
C1445       C  0.61688706  0.93362251  0.85446443    -0.07430
C1446       C  0.64613285  0.92001032  0.86274333     0.13430
C1447       C  0.67636478  0.93802914  0.86327140    -0.24260
H1448       H  0.67074868  0.87787727  0.87364030     0.14720
H1449       H  0.56728779  0.92494798  0.85436855     0.14740
C1450       C  0.56256452  0.86554963  0.87565465    -0.24210
H1451       H  0.69607309  0.92388788  0.87217691     0.04960
H1452       H  0.67396645  0.95848695  0.87890266     0.08180
H1453       H  0.68297253  0.94539515  0.83943360     0.08180
H1454       H  0.56339780  0.85846390  0.90041409     0.08170
H1455       H  0.55958321  0.84439499  0.86141201     0.08170
H1456       H  0.54154558  0.88031651  0.87247672     0.04940
C1457       C  0.69881707  0.98159425  0.69668224    -0.20860
C1458       C  0.70025261  0.97187458  0.72805672    -0.07430
C1459       C  0.72480751  0.95205742  0.73689456     0.13440
C1460       C  0.74466880  0.93990432  0.71363751    -0.20920
C1461       C  0.74084412  0.94748046  0.68186712    -0.07430
C1462       C  0.71882351  0.97034637  0.67380456     0.13430
C1463       C  0.71473165  0.98234203  0.64109520    -0.24260
H1464       H  0.68124880  0.99799750  0.68923865     0.14720
H1465       H  0.76225414  0.92306208  0.72017582     0.14740
C1466       C  0.72995272  0.94323711  0.77028415    -0.24210
H1467       H  0.69695370  0.00098561  0.63991837     0.04960
H1468       H  0.70643521  0.96364964  0.62552957     0.08180
H1469       H  0.73709202  0.99207244  0.63234809     0.08180
H1470       H  0.70881614  0.93175036  0.77981087     0.08170
H1471       H  0.73507590  0.96435741  0.78418978     0.08170
H1472       H  0.74993149  0.92697620  0.77278568     0.04940
C1473       C  0.40205766  0.91947455  0.60445424    -0.20860
C1474       C  0.41601601  0.90340035  0.62952459    -0.07430
C1475       C  0.39597264  0.88501595  0.64842249     0.13440
C1476       C  0.36428327  0.88168608  0.64099675    -0.20920
C1477       C  0.34995966  0.89675903  0.61570264    -0.07430
C1478       C  0.36946656  0.91638278  0.59737223     0.13430
C1479       C  0.35630526  0.93361620  0.57011801    -0.24260
H1480       H  0.41671995  0.93406889  0.59001506     0.14720
H1481       H  0.35032944  0.86715513  0.65615687     0.14740
C1482       C  0.40715371  0.86962169  0.67793356    -0.24210
H1483       H  0.37447970  0.94751036  0.55799737     0.04960
H1484       H  0.33768390  0.94975321  0.57818497     0.08180
H1485       H  0.34645123  0.91683719  0.55319372     0.08180
H1486       H  0.41888460  0.88700377  0.69295737     0.08170
H1487       H  0.42329223  0.85019043  0.67238033     0.08170
H1488       H  0.38764723  0.85956617  0.69173651     0.04940
C1489       C  0.30004739  0.94550502  0.68098273    -0.20860
C1490       C  0.26797615  0.94998133  0.68546771    -0.07430
C1491       C  0.25652609  0.95636548  0.71600289     0.13440
C1492       C  0.27791101  0.96202165  0.74003798    -0.20920
C1493       C  0.31000225  0.95882140  0.73478884    -0.07430
C1494       C  0.32083672  0.94836442  0.70543961     0.13430
C1495       C  0.35471028  0.94066116  0.69931147    -0.24260
H1496       H  0.30908495  0.93845993  0.65845973     0.14720
H1497       H  0.26969130  0.97033976  0.76243944     0.14740
C1498       C  0.22214438  0.95732546  0.72368330    -0.24210
H1499       H  0.35653666  0.91653235  0.69081185     0.04960
H1500       H  0.36903809  0.94176508  0.72062159     0.08180
H1501       H  0.36454788  0.95662490  0.68154492     0.08180
H1502       H  0.21211386  0.93366391  0.72148003     0.08170
H1503       H  0.20972338  0.97331958  0.70784210     0.08170
H1504       H  0.21777950  0.96527147  0.74790124     0.04940
C1505       C  0.11910733  0.92063231  0.63067040    -0.20860
C1506       C  0.13920821  0.91957996  0.60467513    -0.07430
C1507       C  0.12586355  0.91197244  0.57580061     0.13440
C1508       C  0.09567041  0.89832998  0.57500260    -0.20920
C1509       C  0.07740230  0.89422377  0.60234882    -0.07430
C1510       C  0.08877463  0.90808044  0.63012378     0.13430
C1511       C  0.07031121  0.90841505  0.66009703    -0.24260
H1512       H  0.12868308  0.92795327  0.65276720     0.14720
H1513       H  0.08665456  0.89035568  0.55293634     0.14740
C1514       C  0.14270657  0.91977608  0.54603655    -0.24210
H1515       H  0.08232258  0.92175653  0.67861006     0.04960
H1516       H  0.06722464  0.88437162  0.66886924     0.08180
H1517       H  0.04729344  0.91963543  0.65634917     0.08180
H1518       H  0.16694600  0.91098784  0.54595978     0.08170
H1519       H  0.14386494  0.94544076  0.54371191     0.08170
H1520       H  0.13041086  0.91028880  0.52546775     0.04940
C1521       C  0.24399091  0.79846475  0.54194653    -0.20860
C1522       C  0.22692921  0.82505002  0.55122777    -0.07430
C1523       C  0.19577170  0.82076004  0.56130517     0.13440
C1524       C  0.18410169  0.79077923  0.56537157    -0.20920
C1525       C  0.19877308  0.76535656  0.55111912    -0.07430
C1526       C  0.22983335  0.76890112  0.54061099     0.13430
C1527       C  0.24752486  0.74174181  0.52715412    -0.24260
H1528       H  0.26829748  0.80093992  0.53529640     0.14720
H1529       H  0.16022344  0.78801869  0.57353486     0.14740
C1530       C  0.17463571  0.84737140  0.56847465    -0.24210
H1531       H  0.27162097  0.74836216  0.52021855     0.04960
H1532       H  0.23553250  0.73273789  0.50625653     0.08180
H1533       H  0.24896296  0.72295232  0.54472713     0.08180
H1534       H  0.17192137  0.86097529  0.54694470     0.08170
H1535       H  0.18503789  0.86115318  0.58717617     0.08170
H1536       H  0.15106295  0.83991338  0.57633035     0.04940
C1537       C  0.31363252  0.83125901  0.75683947    -0.20860
C1538       C  0.30475608  0.80073766  0.76374185    -0.07430
C1539       C  0.27969863  0.78654946  0.74826745     0.13440
C1540       C  0.26420443  0.80364730  0.72563998    -0.20920
C1541       C  0.27314826  0.83431286  0.71900132    -0.07430
C1542       C  0.29783497  0.84830805  0.73478029     0.13430
C1543       C  0.30814358  0.88069310  0.72761689    -0.24260
H1544       H  0.33285953  0.84195186  0.76916284     0.14720
H1545       H  0.24541109  0.79299312  0.71265056     0.14740
C1546       C  0.26868384  0.75422675  0.75606195    -0.24210
H1547       H  0.32845336  0.88790347  0.74180487     0.04960
H1548       H  0.28853001  0.89678431  0.73263875     0.08180
H1549       H  0.31479827  0.88215313  0.70272081     0.08180
H1550       H  0.26137572  0.75332232  0.78080580     0.08170
H1551       H  0.28770965  0.73717730  0.75178711     0.08170
H1552       H  0.24839426  0.74722915  0.74173152     0.04940
C1553       C  0.41302053  0.88250507  0.86120419    -0.20860
C1554       C  0.38625255  0.87362492  0.87795881    -0.07430
C1555       C  0.36464084  0.89734237  0.88630487     0.13440
C1556       C  0.36908769  0.92829393  0.87597777    -0.20920
C1557       C  0.39452596  0.93690827  0.85690047    -0.07430
C1558       C  0.41746396  0.91345281  0.85052076     0.13430
C1559       C  0.44591220  0.91991734  0.83077589    -0.24260
H1560       H  0.42935754  0.86451670  0.85413430     0.14720
H1561       H  0.35158853  0.94561916  0.88174023     0.14740
C1562       C  0.33614450  0.88984057  0.90560924    -0.24210
H1563       H  0.46096830  0.89901657  0.82808702     0.04960
H1564       H  0.46021646  0.93833169  0.84179102     0.08180
H1565       H  0.43877743  0.92723476  0.80714504     0.08180
H1566       H  0.34339691  0.87903525  0.92782223     0.08170
H1567       H  0.32065690  0.87359595  0.89297287     0.08170
H1568       H  0.32231896  0.91101828  0.91120467     0.04940
C1569       C  0.44190669  0.80645619  0.74353774    -0.20860
C1570       C  0.46602634  0.82713954  0.74986393    -0.07430
C1571       C  0.47971294  0.82724343  0.77991668     0.13440
C1572       C  0.46836683  0.80717368  0.80284706    -0.20920
C1573       C  0.44346632  0.78724377  0.79704089    -0.07430
C1574       C  0.42989010  0.78700019  0.76688150     0.13430
C1575       C  0.40092698  0.76878151  0.75964549    -0.24260
H1576       H  0.43112103  0.80699724  0.72082827     0.14720
H1577       H  0.47867423  0.80743806  0.82578657     0.14740
C1578       C  0.50676149  0.84786387  0.78830750    -0.24210
H1579       H  0.39306452  0.77236122  0.73537285     0.04960
H1580       H  0.38194862  0.77700516  0.77512394     0.08180
H1581       H  0.40509253  0.74354406  0.76273574     0.08180
H1582       H  0.51361269  0.84522205  0.81300969     0.08170
H1583       H  0.50098419  0.87270638  0.78475739     0.08170
H1584       H  0.52719595  0.84101800  0.77421289     0.04940
C1585       C  0.15149296  0.76681757  0.68366107    -0.20860
C1586       C  0.16977666  0.73982234  0.68238278    -0.07430
C1587       C  0.19190152  0.73612330  0.65769889     0.13440
C1588       C  0.19856910  0.76149437  0.63876553    -0.20920
C1589       C  0.18404617  0.79002905  0.64406611    -0.07430
C1590       C  0.15740638  0.79153512  0.66356235     0.13430
C1591       C  0.13559931  0.81917463  0.66358177    -0.24260
H1592       H  0.13331885  0.76915868  0.70112994     0.14720
H1593       H  0.21791901  0.76002107  0.62244629     0.14740
C1594       C  0.20996621  0.70651601  0.65151442    -0.24210
H1595       H  0.11464464  0.81484484  0.67824714     0.04960
H1596       H  0.12755479  0.82363322  0.63952593     0.08180
H1597       H  0.14686887  0.84034889  0.67283705     0.08180
H1598       H  0.19364316  0.68690058  0.64833242     0.08170
H1599       H  0.22645695  0.70169994  0.67066602     0.08170
H1600       H  0.22422198  0.70803380  0.62990888     0.04940
C1601       C  0.28498610  0.68474446  0.81153394    -0.20860
C1602       C  0.27664110  0.71018773  0.83067012    -0.07430
C1603       C  0.24487121  0.71600137  0.83691574     0.10820
C1604       C  0.22266870  0.69787175  0.82172483    -0.20920
C1605       C  0.23134439  0.67836159  0.79668739    -0.07430
C1606       C  0.26300028  0.67078001  0.79222899     0.13430
C1607       C  0.27432383  0.65190714  0.76484437    -0.24260
H1608       H  0.30945983  0.67941711  0.80770713     0.14720
H1609       H  0.19816649  0.70272055  0.82598878     0.14740
C1610       C  0.23391487  0.74366197  0.85559364    -0.24210
H1611       H  0.30002232  0.64853045  0.76511496     0.04960
H1612       H  0.26827978  0.66400993  0.74293637     0.08180
H1613       H  0.26336010  0.62875487  0.76490582     0.08180
H1614       H  0.24111637  0.76543763  0.84378072     0.08170
H1615       H  0.24404936  0.74315246  0.87906610     0.08170
H1616       H  0.20811596  0.74417698  0.85821515     0.04940
C1617       C  0.15186579  0.63258121  0.61101468    -0.20860
C1618       C  0.12612621  0.63350321  0.63150837    -0.07430
C1619       C  0.09644257  0.63959893  0.61853200     0.13440
C1620       C  0.09398072  0.64767381  0.58654569    -0.20920
C1621       C  0.12028680  0.64902638  0.56640308    -0.07430
C1622       C  0.14949902  0.63974428  0.57907558     0.13430
C1623       C  0.17899440  0.63835104  0.55979328    -0.24260
H1624       H  0.17465254  0.62740827  0.62051870     0.14720
H1625       H  0.07130087  0.65389218  0.57748606     0.14740
C1626       C  0.06738385  0.63835560  0.63832408    -0.24210
H1627       H  0.19920410  0.62985687  0.57340445     0.04960
H1628       H  0.18509898  0.66184340  0.55118994     0.08180
H1629       H  0.17584845  0.62208889  0.53999868     0.08180
H1630       H  0.06872370  0.65529338  0.65761052     0.08170
H1631       H  0.06468162  0.61466180  0.64812136     0.08170
H1632       H  0.04616444  0.64379290  0.62468468     0.04940
C1633       C  0.08636765  0.71167381  0.68858438    -0.20860
C1634       C  0.07335224  0.71079235  0.71850113    -0.07430
C1635       C  0.05951980  0.73800017  0.73104473     0.13440
C1636       C  0.05724746  0.76472639  0.71244027    -0.20920
C1637       C  0.06801843  0.76454674  0.68159999    -0.07430
C1638       C  0.08416616  0.73811738  0.67014988     0.13430
C1639       C  0.09701456  0.73643167  0.63740926    -0.24260
H1640       H  0.09931312  0.69186948  0.67977494     0.14720
H1641       H  0.04388684  0.78451455  0.72080209     0.14740
C1642       C  0.04533185  0.73833452  0.76316586    -0.24210
H1643       H  0.12191071  0.72935887  0.63774908     0.04960
H1644       H  0.09557760  0.75915891  0.62533594     0.08180
H1645       H  0.08382014  0.71885492  0.62390134     0.08180
H1646       H  0.06367193  0.73476994  0.78085851     0.08170
H1647       H  0.02759083  0.71964328  0.76512679     0.08170
H1648       H  0.03366795  0.76084634  0.76839281     0.04940
C1649       C  0.61776286  0.60664415  0.12015410    -0.20860
C1650       C  0.64174925  0.59691223  0.09983006    -0.07430
C1651       C  0.65636000  0.61989834  0.08092964     0.13440
C1652       C  0.64853433  0.65162914  0.08464391    -0.20920
C1653       C  0.62615817  0.66141061  0.10646234    -0.07430
C1654       C  0.60955262  0.63842567  0.12326731     0.13430
C1655       C  0.58328771  0.64765078  0.14480724    -0.24260
H1656       H  0.60590611  0.58941930  0.13423888     0.14720
H1657       H  0.66130022  0.66905770  0.07165487     0.14740
C1658       C  0.68193254  0.61151955  0.05824996    -0.24210
H1659       H  0.57203110  0.62705876  0.15558752     0.04960
H1660       H  0.56525464  0.66049794  0.13152808     0.08180
H1661       H  0.59216146  0.66279622  0.16365907     0.08180
H1662       H  0.69143776  0.63227261  0.04618898     0.08170
H1663       H  0.67281560  0.59572551  0.04007066     0.08170
H1664       H  0.70124643  0.60001693  0.07088257     0.04940
C1665       C  0.70829278  0.71932038  0.08637257    -0.20860
C1666       C  0.71013458  0.74970991  0.07476791    -0.07430
C1667       C  0.73957039  0.76106222  0.06462427     0.13440
C1668       C  0.76439768  0.73983387  0.06075478    -0.20920
C1669       C  0.76010878  0.70812696  0.06716339    -0.07430
C1670       C  0.73346551  0.69888357  0.08404082     0.13430
C1671       C  0.73130793  0.66695644  0.09845409    -0.24260
H1672       H  0.68712637  0.71164356  0.09778987     0.14720
H1673       H  0.78544242  0.74731652  0.04882428     0.14740
C1674       C  0.74521218  0.79452422  0.05586807    -0.24210
H1675       H  0.70984353  0.66441476  0.11281115     0.04960
H1676       H  0.75167868  0.66286743  0.11360272     0.08180
H1677       H  0.73129759  0.64850965  0.08061873     0.08180
H1678       H  0.76177805  0.80502692  0.07256863     0.08170
H1679       H  0.72364702  0.80869224  0.05561628     0.08170
H1680       H  0.75578931  0.79591714  0.03231843     0.04940
C1681       C  0.74547051  0.66788035  0.20161618    -0.20860
C1682       C  0.77474992  0.67346799  0.18866715    -0.07430
C1683       C  0.77781288  0.69335701  0.16282423     0.13440
C1684       C  0.75309865  0.71291113  0.15549700    -0.20920
C1685       C  0.72496163  0.71124234  0.17202890    -0.07430
C1686       C  0.72019120  0.68656573  0.19369815     0.13430
C1687       C  0.68969826  0.68061558  0.21049911    -0.24260
H1688       H  0.74326958  0.65183070  0.22090500     0.14720
H1689       H  0.75635791  0.73034488  0.13765125     0.14740
C1690       C  0.80742350  0.69483067  0.14372400    -0.24210
H1691       H  0.68483223  0.69959489  0.22738923     0.04960
H1692       H  0.69026753  0.65854788  0.22385475     0.08180
H1693       H  0.67041621  0.67854086  0.19357633     0.08180
H1694       H  0.81412037  0.67104812  0.13607300     0.08170
H1695       H  0.82665600  0.70532008  0.15715253     0.08170
H1696       H  0.80430066  0.70923152  0.12258370     0.04940
C1697       C  0.91260858  0.63390638  0.35918083    -0.20860
C1698       C  0.88307325  0.62794225  0.34673265    -0.07430
C1699       C  0.85759501  0.62569167  0.36792576     0.13440
C1700       C  0.86112858  0.63506094  0.39913707    -0.20920
C1701       C  0.88958880  0.64658669  0.41048419    -0.07430
C1702       C  0.91624426  0.64398172  0.39039828     0.13430
C1703       C  0.94850914  0.65298697  0.40077788    -0.24260
H1704       H  0.93270130  0.63264377  0.34396726     0.14720
H1705       H  0.84085454  0.63487529  0.41431162     0.14740
C1706       C  0.82640630  0.61306947  0.35780645    -0.24210
H1707       H  0.96637880  0.64816169  0.38256611     0.04960
H1708       H  0.95496796  0.63945874  0.42170911     0.08180
H1709       H  0.94938716  0.67827442  0.40586357     0.08180
H1710       H  0.82974170  0.58991074  0.34680991     0.08170
H1711       H  0.81489538  0.62886238  0.34116478     0.08170
H1712       H  0.81017203  0.61016975  0.37781361     0.04940
C1713       C  0.95311303  0.73991221  0.24267619    -0.20860
C1714       C  0.94961414  0.71063284  0.25697907    -0.07430
C1715       C  0.95501187  0.70809651  0.28906687     0.13440
C1716       C  0.96053292  0.73480134  0.30620144    -0.20920
C1717       C  0.96078371  0.76463437  0.29277767    -0.07430
C1718       C  0.95770007  0.76716036  0.26011691     0.13430
C1719       C  0.95698650  0.79742501  0.24251465    -0.24260
H1720       H  0.94928857  0.74202567  0.21788540     0.14720
H1721       H  0.96416270  0.73197364  0.33091958     0.14740
C1722       C  0.95189133  0.67808708  0.30656016    -0.24210
H1723       H  0.97708148  0.79829230  0.22612516     0.04960
H1724       H  0.95735159  0.81840815  0.25718429     0.08180
H1725       H  0.93511345  0.79871037  0.22887808     0.08180
H1726       H  0.96660887  0.65970901  0.29584361     0.08170
H1727       H  0.92707531  0.67110364  0.30641615     0.08170
H1728       H  0.95909849  0.68041952  0.33119002     0.04940
C1729       C  0.90090274  0.65203189  0.11258895    -0.20860
C1730       C  0.88496946  0.63475581  0.13557714    -0.07430
C1731       C  0.86220274  0.61330936  0.12505316     0.13440
C1732       C  0.85640941  0.60931946  0.09294421    -0.20920
C1733       C  0.87116360  0.62745735  0.06995579    -0.07430
C1734       C  0.89424688  0.64888980  0.08027010     0.13430
C1735       C  0.91188896  0.66881460  0.05745883    -0.24260
H1736       H  0.91763299  0.66930425  0.12007536     0.14720
H1737       H  0.83819317  0.59330824  0.08605130     0.14740
C1738       C  0.84172001  0.59556878  0.14710357    -0.24210
H1739       H  0.93039722  0.68256427  0.06904555     0.04960
H1740       H  0.89584089  0.68550741  0.04616258     0.08180
H1741       H  0.92320803  0.65388094  0.03955515     0.08180
H1742       H  0.84479761  0.57034528  0.14261042     0.08170
H1743       H  0.81691042  0.60188901  0.14322183     0.08170
H1744       H  0.84708798  0.60035869  0.17173075     0.04940
C1745       C  0.79929919  0.54091547  0.18179609    -0.20860
C1746       C  0.76825733  0.55213747  0.18495092    -0.07430
C1747       C  0.76043614  0.56964845  0.21157539     0.13440
C1748       C  0.78421163  0.57734112  0.23259146    -0.20920
C1749       C  0.81552769  0.56806944  0.22748154    -0.07430
C1750       C  0.82259189  0.54776659  0.20293774     0.13430
C1751       C  0.85466241  0.53351959  0.19829189    -0.24260
H1752       H  0.80617314  0.52674947  0.16212696     0.14720
H1753       H  0.77856038  0.59240408  0.25204871     0.14740
C1754       C  0.72771749  0.58101081  0.21760982    -0.24210
H1755       H  0.85504553  0.51641361  0.17898007     0.04960
H1756       H  0.86186588  0.52134803  0.21979985     0.08180
H1757       H  0.87225527  0.55123673  0.19193528     0.08180
H1758       H  0.71172124  0.56088867  0.22007527     0.08170
H1759       H  0.72000184  0.59596405  0.19811709     0.08170
H1760       H  0.72611157  0.59492841  0.23933541     0.04940
C1761       C  0.67598099  0.84196024  0.27097203    -0.20860
C1762       C  0.70274564  0.82474464  0.27843941    -0.07430
C1763       C  0.70552136  0.79352531  0.26876212     0.13440
C1764       C  0.68229133  0.78088981  0.25022578    -0.20920
C1765       C  0.65816599  0.79951443  0.23877423    -0.07430
C1766       C  0.65401589  0.82990897  0.25011844     0.13430
C1767       C  0.62740503  0.84969595  0.23886162    -0.24260
H1768       H  0.67279718  0.86494962  0.28077537     0.14720
H1769       H  0.68538157  0.75756214  0.24114284     0.14740
C1770       C  0.73392424  0.77406853  0.27617157    -0.24210
H1771       H  0.62554809  0.87177460  0.25205327     0.04960
H1772       H  0.60509230  0.83716259  0.24195818     0.08180
H1773       H  0.63060884  0.85504112  0.21381826     0.08180
H1774       H  0.73548705  0.77001116  0.30154050     0.08170
H1775       H  0.75534613  0.78613444  0.26798293     0.08170
H1776       H  0.73313967  0.75094975  0.26464734     0.04940
C1777       C  0.79453792  0.75355581  0.34539539    -0.20860
C1778       C  0.81084862  0.78144565  0.34687571    -0.07430
C1779       C  0.84025445  0.78360322  0.33182228     0.13440
C1780       C  0.84947375  0.76049385  0.31056804    -0.20920
C1781       C  0.83021670  0.73484964  0.30463498    -0.07430
C1782       C  0.80345165  0.73024099  0.32427753     0.13430
C1783       C  0.78266797  0.70196747  0.32247292    -0.24260
H1784       H  0.77231085  0.75178870  0.35747989     0.14720
H1785       H  0.87092984  0.76351496  0.29742994     0.14740
C1786       C  0.86101847  0.81147465  0.33611498    -0.24210
H1787       H  0.76450406  0.70197168  0.34101701     0.04960
H1788       H  0.79678420  0.68056902  0.32546912     0.08180
H1789       H  0.77018173  0.70146091  0.29996522     0.08180
H1790       H  0.85162791  0.82767162  0.35401473     0.08170
H1791       H  0.86350060  0.82415644  0.31379325     0.08170
H1792       H  0.88443589  0.80371291  0.34384200     0.04940
C1793       C  0.87643284  0.90905347  0.39435246    -0.20860
C1794       C  0.86355094  0.91046082  0.36437544    -0.07430
C1795       C  0.88469023  0.90933310  0.33889488     0.13440
C1796       C  0.91636046  0.90182365  0.34365894    -0.20920
C1797       C  0.92823600  0.89449410  0.37328644    -0.07430
C1798       C  0.90801682  0.89999584  0.39922452     0.13430
C1799       C  0.91883818  0.89529490  0.43209067    -0.24260
H1800       H  0.86131396  0.91295451  0.41416276     0.14720
H1801       H  0.93143089  0.89968118  0.32345860     0.14740
C1802       C  0.87392529  0.91601220  0.30625378    -0.24210
H1803       H  0.90056872  0.90199753  0.44929194     0.04960
H1804       H  0.93974011  0.90981003  0.43652029     0.08180
H1805       H  0.92440688  0.87041792  0.43603311     0.08180
H1806       H  0.86190112  0.93889416  0.30568529     0.08170
H1807       H  0.85787136  0.89769453  0.29792129     0.08170
H1808       H  0.89381483  0.91693907  0.28960023     0.04940
C1809       C  0.76015136  0.80788810  0.44431185    -0.20860
C1810       C  0.77561513  0.83630944  0.43830769    -0.07430
C1811       C  0.80834803  0.83624179  0.43660424     0.13440
C1812       C  0.82418988  0.80813665  0.43602885    -0.20920
C1813       C  0.80936728  0.77973394  0.44265576    -0.07430
C1814       C  0.77668401  0.77965865  0.44711302     0.13430
C1815       C  0.75905963  0.75023469  0.45405898    -0.24260
H1816       H  0.73490321  0.80759774  0.44582122     0.14720
H1817       H  0.84919216  0.80895653  0.43217002     0.14740
C1818       C  0.82722928  0.86540761  0.43479166    -0.24210
H1819       H  0.73356430  0.75452290  0.45611503     0.04960
H1820       H  0.76698665  0.74019757  0.47635720     0.08180
H1821       H  0.76297863  0.73315967  0.43503670     0.08180
H1822       H  0.82031532  0.88158120  0.45378154     0.08170
H1823       H  0.82342017  0.87600849  0.41192520     0.08170
H1824       H  0.85263265  0.86082482  0.43705422     0.04940
C1825       C  0.89508039  0.40956530  0.07370664    -0.20860
C1826       C  0.86353483  0.40452616  0.06587886    -0.07430
C1827       C  0.84218815  0.39824854  0.09024912     0.13440
C1828       C  0.85229306  0.39808751  0.12132091    -0.20920
C1829       C  0.88375689  0.40196267  0.12942729    -0.07430
C1830       C  0.90545681  0.40771667  0.10510262     0.13430
C1831       C  0.93950532  0.41140807  0.11229831    -0.24260
H1832       H  0.91173474  0.41415968  0.05524242     0.14720
H1833       H  0.83529084  0.39406574  0.13943670     0.14740
C1834       C  0.80866887  0.39027037  0.08339302    -0.24210
H1835       H  0.95350833  0.41585369  0.09096286     0.04960
H1836       H  0.94845630  0.38990393  0.12335620     0.08180
H1837       H  0.94269136  0.43128909  0.12846287     0.08180
H1838       H  0.80788095  0.36902269  0.06883837     0.08170
H1839       H  0.79728641  0.40971586  0.07086670     0.08170
H1840       H  0.79503385  0.38545101  0.10489614     0.04940
C1841       C  0.82081762  0.46355859  0.18384285    -0.20860
C1842       C  0.81631059  0.46590829  0.21585195    -0.07430
C1843       C  0.78658481  0.47419557  0.22738303     0.13440
C1844       C  0.76092906  0.47353935  0.20745540    -0.20920
C1845       C  0.76459336  0.46626875  0.17573142    -0.07430
C1846       C  0.79552363  0.46333074  0.16352208     0.13430
C1847       C  0.80290094  0.46004823  0.12940676    -0.24260
H1848       H  0.84390965  0.45781631  0.17501752     0.14720
H1849       H  0.73793384  0.47822762  0.21702534     0.14740
C1850       C  0.78132729  0.48081670  0.26133180    -0.24210
H1851       H  0.82830802  0.45761919  0.12487285     0.04960
H1852       H  0.79554055  0.48111441  0.11679764     0.08180
H1853       H  0.79121413  0.43922070  0.11999564     0.08180
H1854       H  0.80355053  0.48031240  0.27444740     0.08170
H1855       H  0.76523779  0.46324628  0.27137494     0.08170
H1856       H  0.77084241  0.50429881  0.26410792     0.04940
C1857       C  0.82190203  0.23196098  0.29000505    -0.20860
C1858       C  0.79562602  0.23794389  0.30907326    -0.07430
C1859       C  0.78571660  0.26875974  0.31419831     0.13440
C1860       C  0.80067677  0.29241667  0.29791237    -0.20920
C1861       C  0.82491535  0.28597881  0.27660884    -0.07430
C1862       C  0.83638230  0.25562612  0.27323798     0.13430
C1863       C  0.86360702  0.24812811  0.25216518    -0.24260
H1864       H  0.83022368  0.20832475  0.28695805     0.14720
H1865       H  0.79246710  0.31611087  0.30087485     0.14740
C1866       C  0.75868586  0.27695285  0.33533577    -0.24210
H1867       H  0.87047022  0.22327348  0.25372972     0.04960
H1868       H  0.85739292  0.25299939  0.22767741     0.08180
H1869       H  0.88402430  0.26244797  0.25869397     0.08180
H1870       H  0.76371815  0.26919906  0.35936298     0.08170
H1871       H  0.73702609  0.26571148  0.32691233     0.08170
H1872       H  0.75439332  0.30241493  0.33617781     0.04940
C1873       C  0.75973677  0.30452569  0.13577411    -0.20860
C1874       C  0.72991872  0.31677454  0.14007391    -0.07430
C1875       C  0.72571311  0.34506587  0.15662595     0.13440
C1876       C  0.75085353  0.35759401  0.17275446    -0.20920
C1877       C  0.77975248  0.34279357  0.17192128    -0.07430
C1878       C  0.78492743  0.31705746  0.15176386     0.13430
C1879       C  0.81619454  0.30099484  0.14884218    -0.24260
H1880       H  0.76274416  0.28315632  0.12265489     0.14720
H1881       H  0.74772011  0.37825821  0.18693213     0.14740
C1882       C  0.69468035  0.36161265  0.15829192    -0.24210
H1883       H  0.81506647  0.28013789  0.13362534     0.04960
H1884       H  0.82420996  0.29326788  0.17204545     0.08180
H1885       H  0.83359406  0.31699397  0.13837360     0.08180
H1886       H  0.67759788  0.34800005  0.17204069     0.08170
H1887       H  0.68570527  0.36550340  0.13450161     0.08170
H1888       H  0.69673347  0.38470390  0.16970691     0.04940
C1889       C  0.71043815  0.20811521  0.20906050    -0.20860
C1890       C  0.67778140  0.20941095  0.20610081    -0.07430
C1891       C  0.65922619  0.18815044  0.22310802     0.13440
C1892       C  0.67377319  0.16905012  0.24527812    -0.20920
C1893       C  0.70638871  0.16899404  0.24873841    -0.07430
C1894       C  0.72490906  0.18733879  0.22894317     0.13430
C1895       C  0.76011462  0.18711209  0.22953586    -0.24260
H1896       H  0.72516745  0.22345600  0.19538945     0.14720
H1897       H  0.65955569  0.15497537  0.26070409     0.14740
C1898       C  0.62473669  0.18419050  0.21804836    -0.24210
H1899       H  0.76925894  0.18295579  0.20567945     0.04960
H1900       H  0.76971464  0.16848619  0.24437680     0.08180
H1901       H  0.76879481  0.20994005  0.23791084     0.08180
H1902       H  0.61530153  0.19970323  0.19991659     0.08170
H1903       H  0.61200754  0.18864952  0.24008879     0.08170
H1904       H  0.62002033  0.15989163  0.21070760     0.04940
C1905       C  0.61164054  0.38993067  0.13328784    -0.20860
C1906       C  0.61329604  0.37087522  0.10677387    -0.07430
C1907       C  0.61855730  0.38539388  0.07774481     0.13440
C1908       C  0.62645357  0.41746535  0.07670879    -0.20920
C1909       C  0.62839229  0.43590591  0.10395042    -0.07430
C1910       C  0.61854140  0.42194212  0.13237166     0.13430
C1911       C  0.61596166  0.43994916  0.16241730    -0.24260
H1912       H  0.60663607  0.37915738  0.15552513     0.14720
H1913       H  0.63274520  0.42767546  0.05455841     0.14740
C1914       C  0.61664857  0.36711599  0.04797516    -0.24210
H1915       H  0.60436655  0.42614114  0.18095909     0.04960
H1916       H  0.60176145  0.46124615  0.15885773     0.08180
H1917       H  0.63946030  0.44608440  0.17111481     0.08180
H1918       H  0.59280362  0.35741621  0.04554035     0.08170
H1919       H  0.63361751  0.34776064  0.04794260     0.08170
H1920       H  0.62157753  0.38186669  0.02737778     0.04940
C1921       C  0.69415934  0.31552633  0.05560365    -0.20860
C1922       C  0.69190051  0.28477855  0.04500394    -0.07430
C1923       C  0.71856829  0.27068389  0.03115469     0.13440
C1924       C  0.74497955  0.28895517  0.02446266    -0.20920
C1925       C  0.74609145  0.32032775  0.03318509    -0.07430
C1926       C  0.72102771  0.33317223  0.05045290     0.13430
C1927       C  0.72160407  0.36605725  0.06263784    -0.24260
H1928       H  0.67539348  0.32548815  0.06932997     0.14720
H1929       H  0.76401600  0.27923241  0.01082740     0.14740
C1930       C  0.71923443  0.23660918  0.02309969    -0.24210
H1931       H  0.71820902  0.36586281  0.08819322     0.04960
H1932       H  0.70250739  0.37974556  0.05193948     0.08180
H1933       H  0.74410077  0.37784955  0.05782045     0.08180
H1934       H  0.69865802  0.23059604  0.00881255     0.08170
H1935       H  0.71882937  0.22255591  0.04467515     0.08170
H1936       H  0.74076528  0.23015406  0.01009285     0.04940
C1937       C  0.86747147  0.13585293  0.58168495    -0.20860
C1938       C  0.85870664  0.12000128  0.60889990    -0.07430
C1939       C  0.88277899  0.11138012  0.62976222     0.13440
C1940       C  0.91368981  0.12166656  0.62479790    -0.20920
C1941       C  0.92216962  0.13991525  0.59899688    -0.07430
C1942       C  0.89865608  0.14587702  0.57644099     0.13430
C1943       C  0.90542063  0.16498705  0.54793024    -0.24260
H1944       H  0.84935302  0.14278046  0.56566710     0.14720
H1945       H  0.93119016  0.11620081  0.64202527     0.14740
C1946       C  0.87651088  0.09179060  0.65811942    -0.24210
H1947       H  0.88445454  0.16775184  0.53315442     0.04960
H1948       H  0.92376672  0.15349318  0.53362370     0.08180
H1949       H  0.91316839  0.18854539  0.55493520     0.08180
H1950       H  0.85223977  0.08295563  0.65915044     0.08170
H1951       H  0.88115588  0.10560324  0.67941356     0.08170
H1952       H  0.89218784  0.07120618  0.65777992     0.04940
C1953       C  0.95353031  0.29361190  0.73242984    -0.20860
C1954       C  0.95691099  0.32386839  0.72028381    -0.07430
C1955       C  0.96431418  0.32721854  0.68839705     0.13440
C1956       C  0.96324268  0.30107821  0.66910008    -0.20920
C1957       C  0.95559765  0.27143965  0.68057719    -0.07430
C1958       C  0.95154882  0.26750685  0.71288420     0.13430
C1959       C  0.94256659  0.23656344  0.72667336    -0.24260
H1960       H  0.94896249  0.29060947  0.75703465     0.14720
H1961       H  0.96837078  0.30397902  0.64460862     0.14740
C1962       C  0.97336409  0.35798763  0.67419750    -0.24210
H1963       H  0.93785802  0.23838161  0.75202011     0.04960
H1964       H  0.96155503  0.21935104  0.72337489     0.08180
H1965       H  0.92103414  0.22788801  0.71539453     0.08180
H1966       H  0.99196450  0.36899646  0.68824409     0.08170
H1967       H  0.95293889  0.37370759  0.67276895     0.08170
H1968       H  0.98244201  0.35509913  0.65012444     0.04940
C1969       C  0.93014901  0.31886695  0.28325616    -0.20860
C1970       C  0.94557672  0.32126673  0.25455102    -0.07430
C1971       C  0.96152292  0.29507199  0.24252030     0.13440
C1972       C  0.96172268  0.26721269  0.25951898    -0.20920
C1973       C  0.94549391  0.26472857  0.28787396    -0.07430
C1974       C  0.92821973  0.29059106  0.29887692     0.13430
C1975       C  0.90906890  0.28927575  0.32838398    -0.24260
H1976       H  0.91617185  0.33821280  0.29175623     0.14720
H1977       H  0.97637305  0.24809278  0.25176881     0.14740
C1978       C  0.97785700  0.29666441  0.21148183    -0.24210
H1979       H  0.91874574  0.30570491  0.34577052     0.04960
H1980       H  0.88458763  0.29597966  0.32333662     0.08180
H1981       H  0.90870845  0.26559755  0.33857454     0.08180
H1982       H  0.99532401  0.31567020  0.21176339     0.08170
H1983       H  0.96071487  0.30131687  0.19284431     0.08170
H1984       H  0.99013076  0.27457683  0.20583952     0.04940
C1985       C  0.86679308  0.14272154  0.39661001    -0.20860
C1986       C  0.85615084  0.12879077  0.36914737    -0.07430
C1987       C  0.87871522  0.12104187  0.34605904     0.13440
C1988       C  0.91043483  0.12924751  0.34996438    -0.20920
C1989       C  0.92098925  0.14555885  0.37631712    -0.07430
C1990       C  0.89857316  0.15124463  0.40055648     0.13430
C1991       C  0.90711724  0.16792966  0.43012701    -0.24260
H1992       H  0.84970725  0.14910747  0.41419721     0.14720
H1993       H  0.92686230  0.12411954  0.33139395     0.14740
C1994       C  0.86924037  0.10451228  0.31666148    -0.24210
H1995       H  0.88692514  0.17002185  0.44632892     0.04960
H1996       H  0.91513372  0.19184761  0.42476635     0.08180
H1997       H  0.92569577  0.15487598  0.44236927     0.08180
H1998       H  0.85336866  0.11931298  0.30280451     0.08170
H1999       H  0.85723429  0.08244332  0.32261862     0.08170
H2000       H  0.88972844  0.09878767  0.30175798     0.04940
C2001       C  0.77519604  0.25265768  0.52229468    -0.20860
C2002       C  0.79944977  0.26731978  0.53851102    -0.07430
C2003       C  0.80870819  0.25609072  0.56754687     0.13440
C2004       C  0.79579288  0.22860555  0.57840909    -0.20920
C2005       C  0.77296273  0.21293602  0.56148378    -0.07430
C2006       C  0.76161474  0.22541296  0.53365309     0.13430
C2007       C  0.73659333  0.20977866  0.51495766    -0.24260
H2008       H  0.76881555  0.26092326  0.49942251     0.14720
H2009       H  0.80372023  0.21921435  0.60025999     0.14740
C2010       C  0.83330927  0.27178937  0.58669285    -0.24210
H2011       H  0.74645271  0.20296026  0.49202634     0.04960
H2012       H  0.71681851  0.22610792  0.51158348     0.08180
H2013       H  0.72742275  0.18848222  0.52621890     0.08180
H2014       H  0.84199510  0.29361714  0.57609835     0.08170
H2015       H  0.85340356  0.25581520  0.58995995     0.08170
H2016       H  0.82288301  0.27783243  0.60957034     0.04940
C2017       C  0.87559495  0.39714751  0.57911334    -0.20860
C2018       C  0.89277678  0.37146627  0.56763980    -0.07430
C2019       C  0.90798042  0.35229421  0.58992110     0.13440
C2020       C  0.90548721  0.35885789  0.62194162    -0.20920
C2021       C  0.88820276  0.38404643  0.63335578    -0.07430
C2022       C  0.87319483  0.40359180  0.61155700     0.13430
C2023       C  0.85359721  0.43048168  0.62268934    -0.24260
H2024       H  0.86333880  0.41176692  0.56275376     0.14720
H2025       H  0.91579712  0.34302071  0.63851073     0.14740
C2026       C  0.92489538  0.32304145  0.58064087    -0.24210
H2027       H  0.84327785  0.44349201  0.60300385     0.04960
H2028       H  0.86824656  0.44675780  0.63631178     0.08180
H2029       H  0.83427835  0.42186959  0.63766756     0.08180
H2030       H  0.94573100  0.32880666  0.56635331     0.08170
H2031       H  0.90887801  0.30767379  0.56754181     0.08170
H2032       H  0.93309762  0.30979001  0.60111163     0.04940
C2033       C  0.86349114  0.39816645  0.39198987    -0.20860
C2034       C  0.89044991  0.38295085  0.40268898    -0.07430
C2035       C  0.91528641  0.37870458  0.38081414     0.13440
C2036       C  0.91127252  0.38704084  0.34908405    -0.20920
C2037       C  0.88306071  0.39953983  0.33795398    -0.07430
C2038       C  0.85945259  0.40653323  0.36049119     0.13430
C2039       C  0.82939967  0.42259918  0.35184059    -0.24260
H2040       H  0.84454668  0.40237324  0.40829083     0.14720
H2041       H  0.92971014  0.38187012  0.33249867     0.14740
C2042       C  0.94557057  0.36372800  0.39004084    -0.24210
H2043       H  0.83456447  0.44400588  0.33840672     0.04960
H2044       H  0.81565619  0.42957075  0.37270841     0.08180
H2045       H  0.81438567  0.40681797  0.33809949     0.08180
H2046       H  0.94117731  0.33965341  0.39790181     0.08170
H2047       H  0.95662452  0.37738872  0.40889295     0.08170
H2048       H  0.96237993  0.36249598  0.37030647     0.04940
C2049       C  0.77525362  0.26411108  0.43107961    -0.20860
C2050       C  0.80635906  0.26320443  0.42045484    -0.07430
C2051       C  0.81620672  0.23768263  0.40195546     0.13440
C2052       C  0.79761578  0.21118545  0.40069797    -0.20920
C2053       C  0.76753616  0.21091616  0.41360935    -0.07430
C2054       C  0.75524379  0.23860380  0.42664145     0.13430
C2055       C  0.72149015  0.24117567  0.43631919    -0.24260
H2056       H  0.76705146  0.28400893  0.44430616     0.14720
H2057       H  0.80611625  0.19105822  0.38798834     0.14740
C2058       C  0.84638514  0.23745793  0.38364866    -0.24210
H2059       H  0.71653407  0.26357016  0.44828594     0.04960
H2060       H  0.71510331  0.22197175  0.45221555     0.08180
H2061       H  0.70645598  0.23993105  0.41547012     0.08180
H2062       H  0.86269639  0.22010188  0.39360070     0.08170
H2063       H  0.85771114  0.26062295  0.38310332     0.08170
H2064       H  0.84162339  0.23102187  0.35915008     0.04940
C2065       C  0.41343875  0.14988207  0.86540758    -0.20860
C2066       C  0.38597968  0.16133410  0.87945841    -0.07430
C2067       C  0.36134408  0.13948268  0.88458502     0.13440
C2068       C  0.36396755  0.10856622  0.87340866    -0.20920
C2069       C  0.39055953  0.09772511  0.85742648    -0.07430
C2070       C  0.41611798  0.11878567  0.85444076     0.13430
C2071       C  0.44579754  0.10959471  0.83791591    -0.24260
H2072       H  0.43245086  0.16585299  0.86131044     0.14720
H2073       H  0.34446911  0.09283302  0.87646155     0.14740
C2074       C  0.33167475  0.14819169  0.90161257    -0.24210
H2075       H  0.46306384  0.12880859  0.83745633     0.04960
H2076       H  0.44050374  0.10352216  0.81352752     0.08180
H2077       H  0.45683584  0.08960935  0.84985743     0.08180
H2078       H  0.31742286  0.16419229  0.88733591     0.08170
H2079       H  0.33736552  0.15917236  0.92424665     0.08170
H2080       H  0.31693269  0.12754646  0.90653765     0.04940
C2081       C  0.47522858  0.26921870  0.78207397    -0.20860
C2082       C  0.47158119  0.25401278  0.81080894    -0.07430
C2083       C  0.47930167  0.22244712  0.81211755     0.13440
C2084       C  0.47820304  0.20496186  0.78469855    -0.20920
C2085       C  0.47273740  0.21933991  0.75575018    -0.07430
C2086       C  0.47388796  0.25217074  0.75417389     0.13430
C2087       C  0.47104958  0.26936579  0.72387933    -0.24260
H2088       H  0.47184353  0.29419135  0.78130561     0.14720
H2089       H  0.48091232  0.17995937  0.78610862     0.14740
C2090       C  0.48542933  0.20705633  0.84279855    -0.24210
H2091       H  0.47086105  0.29495151  0.72741829     0.04960
H2092       H  0.44897637  0.26277795  0.71224854     0.08180
H2093       H  0.49112356  0.26373891  0.70847225     0.08180
H2094       H  0.46512255  0.20994902  0.85862002     0.08170
H2095       H  0.50615777  0.21790757  0.85367903     0.08170
H2096       H  0.49016478  0.18182488  0.83994143     0.04940
C2097       C  0.23234188  0.33125560  0.81169883    -0.20860
C2098       C  0.23664140  0.34862034  0.78426454    -0.07430
C2099       C  0.26675372  0.35090809  0.77085593     0.13440
C2100       C  0.29099148  0.33367886  0.78376369    -0.20920
C2101       C  0.28588729  0.31432912  0.80948796    -0.07430
C2102       C  0.25665260  0.31402725  0.82450590     0.13430
C2103       C  0.25111056  0.29619134  0.85419050    -0.24260
H2104       H  0.20950234  0.32998058  0.82258344     0.14720
H2105       H  0.31394185  0.33449607  0.77301057     0.14740
C2106       C  0.27380831  0.37124397  0.74315575    -0.24210
H2107       H  0.22720620  0.30008359  0.86357829     0.04960
H2108       H  0.26795496  0.30384447  0.87214084     0.08180
H2109       H  0.25386723  0.27088712  0.84998021     0.08180
H2110       H  0.26559788  0.39533031  0.74776899     0.08170
H2111       H  0.26243155  0.36186245  0.72205814     0.08170
H2112       H  0.29924035  0.37231304  0.73810851     0.04940
C2113       C  0.14371700  0.38650120  0.61975347    -0.20860
C2114       C  0.12001948  0.40333709  0.63503890    -0.07430
C2115       C  0.09308383  0.41091650  0.61748755     0.13440
C2116       C  0.09046140  0.40048618  0.58597263    -0.20920
C2117       C  0.11437672  0.38309587  0.57100297    -0.07430
C2118       C  0.14124674  0.37604279  0.58892374     0.13430
C2119       C  0.16666121  0.35482511  0.57715522    -0.24260
H2120       H  0.16429633  0.37995617  0.63269529     0.14720
H2121       H  0.06964912  0.40604791  0.57296344     0.14740
C2122       C  0.06777204  0.43098347  0.63131006    -0.24210
H2123       H  0.18517356  0.35082152  0.59464798     0.04960
H2124       H  0.17827232  0.36487425  0.55640081     0.08180
H2125       H  0.15614638  0.33191163  0.57206346     0.08180
H2126       H  0.07777669  0.45362738  0.63858239     0.08170
H2127       H  0.05711535  0.41955520  0.65178220     0.08170
H2128       H  0.04894538  0.43560183  0.61432476     0.04940
C2129       C  0.05642138  0.30133871  0.67065416    -0.20860
C2130       C  0.04916086  0.27192228  0.68269797    -0.07430
C2131       C  0.04681242  0.26847532  0.71521945     0.13440
C2132       C  0.05240344  0.29448410  0.73451001    -0.20920
C2133       C  0.05826300  0.32429163  0.72196262    -0.07430
C2134       C  0.05772106  0.32758773  0.68943310     0.13430
C2135       C  0.05954949  0.35824590  0.67318742    -0.24260
H2136       H  0.05771907  0.30454755  0.64564878     0.14720
H2137       H  0.05370438  0.29131958  0.75944400     0.14740
C2138       C  0.03876771  0.23764650  0.72948304    -0.24210
H2139       H  0.04135069  0.35950421  0.65499862     0.04960
H2140       H  0.08265213  0.36014693  0.66174254     0.08180
H2141       H  0.05501401  0.37798519  0.68901046     0.08180
H2142       H  0.05664129  0.22013701  0.72271961     0.08170
H2143       H  0.01562287  0.22990579  0.72120870     0.08170
H2144       H  0.03786599  0.23902316  0.75524382     0.04940
C2145       C  0.30763925  0.16251743  0.74461632    -0.20860
C2146       C  0.31375218  0.17477019  0.71520629    -0.07430
C2147       C  0.33696687  0.19801066  0.71137258     0.13440
C2148       C  0.35095124  0.21051335  0.73761787    -0.20920
C2149       C  0.34211781  0.20095856  0.76739031    -0.07430
C2150       C  0.32180548  0.17506278  0.77098638     0.13430
C2151       C  0.31352056  0.16130130  0.80220481    -0.24260
H2152       H  0.29067589  0.14398920  0.74704339     0.14720
H2153       H  0.36749855  0.22937622  0.73491605     0.14740
C2154       C  0.34568626  0.21174597  0.68017171    -0.24210
H2155       H  0.29795737  0.14080826  0.79994320     0.04960
H2156       H  0.30105097  0.17872425  0.81676956     0.08180
H2157       H  0.33504030  0.15336764  0.81406612     0.08180
H2158       H  0.32472584  0.22181819  0.66895116     0.08170
H2159       H  0.35623710  0.19359191  0.66500471     0.08170
H2160       H  0.36314191  0.23067647  0.68230684     0.04940
C2161       C  0.18128528  0.23949622  0.68207016    -0.20860
C2162       C  0.20887341  0.24227734  0.66439240    -0.07430
C2163       C  0.21870884  0.27191615  0.65420370     0.13440
C2164       C  0.20328918  0.29809619  0.66578244    -0.20920
C2165       C  0.17803859  0.29513717  0.68640485    -0.07430
C2166       C  0.16558854  0.26566920  0.69311618     0.13430
C2167       C  0.13594355  0.26171461  0.71182791    -0.24260
H2168       H  0.17272661  0.21673008  0.68866121     0.14720
H2169       H  0.21201017  0.32098617  0.65978196     0.14740
C2170       C  0.24472571  0.27715415  0.63108541    -0.24210
H2171       H  0.12831700  0.23705756  0.71248608     0.04960
H2172       H  0.11697512  0.27556501  0.70115950     0.08180
H2173       H  0.13933478  0.26939566  0.73616624     0.08180
H2174       H  0.25404798  0.25548580  0.62093258     0.08170
H2175       H  0.23582925  0.29124181  0.61142915     0.08170
H2176       H  0.26405389  0.28995655  0.64239402     0.04940
C2177       C  0.37354815  0.10915394  0.61080870    -0.20860
C2178       C  0.36124370  0.13717115  0.59918961    -0.07430
C2179       C  0.38256506  0.16243581  0.59534695     0.13440
C2180       C  0.41324641  0.16031164  0.60689294    -0.20920
C2181       C  0.42445739  0.13360223  0.62183461    -0.07430
C2182       C  0.40461771  0.10702600  0.62218429     0.13430
C2183       C  0.41526098  0.07671327  0.63596602    -0.24260
H2184       H  0.35826700  0.08925661  0.61281970     0.14720
H2185       H  0.42839105  0.18039647  0.60517612     0.14740
C2186       C  0.37352498  0.19231522  0.57934944    -0.24210
H2187       H  0.39672430  0.05872546  0.63505846     0.04960
H2188       H  0.42157664  0.08015810  0.66067126     0.08180
H2189       H  0.43576228  0.06775891  0.62280254     0.08180
H2190       H  0.35765577  0.20628086  0.59433783     0.08170
H2191       H  0.36226143  0.18706865  0.55678394     0.08170
H2192       H  0.39417379  0.20711351  0.57437730     0.04940
C2193       C  0.30779325  0.07188733  0.66847910    -0.20860
C2194       C  0.27683137  0.06181095  0.66933365    -0.07430
C2195       C  0.26542735  0.04740162  0.69654014     0.13440
C2196       C  0.28434349  0.04594407  0.72304480    -0.20920
C2197       C  0.31391618  0.06012559  0.72346463    -0.07430
C2198       C  0.32558304  0.07354654  0.69554224     0.13430
C2199       C  0.35549517  0.09203630  0.69423574    -0.24260
H2200       H  0.31612835  0.08376954  0.64787923     0.14720
H2201       H  0.27548703  0.03463728  0.74376226     0.14740
C2202       C  0.23242534  0.03564551  0.69799900    -0.24210
H2203       H  0.35786418  0.10511991  0.67222646     0.04960
H2204       H  0.37595503  0.07635316  0.69593965     0.08180
H2205       H  0.35573087  0.10952320  0.71325652     0.08180
H2206       H  0.22910633  0.01772871  0.67972564     0.08170
H2207       H  0.21565753  0.05490618  0.69413686     0.08170
H2208       H  0.22697541  0.02531511  0.72100606     0.04940
C2209       C  0.10486181  0.15029321  0.57366670    -0.20860
C2210       C  0.08393447  0.14535368  0.59882170    -0.07430
C2211       C  0.09584646  0.12875027  0.62477789     0.13440
C2212       C  0.12790578  0.12083912  0.62612074    -0.20920
C2213       C  0.14946939  0.12850483  0.60240606    -0.07430
C2214       C  0.13704759  0.14187583  0.57496517     0.13430
C2215       C  0.15758938  0.14809504  0.54718859    -0.24260
H2216       H  0.09635926  0.16209238  0.55318625     0.14720
H2217       H  0.13653714  0.10962663  0.64688929     0.14740
C2218       C  0.07526995  0.11935172  0.65172402    -0.24210
H2219       H  0.14435965  0.15873861  0.52781782     0.04960
H2220       H  0.16782221  0.12590523  0.53867461     0.08180
H2221       H  0.17662307  0.16416545  0.55349948     0.08180
H2222       H  0.05476609  0.10626249  0.64307338     0.08170
H2223       H  0.06751344  0.14016879  0.66494254     0.08170
H2224       H  0.08776928  0.10408298  0.66830325     0.04940
C2225       C  0.20389992  0.21905853  0.56898594    -0.20860
C2226       C  0.23140362  0.21255348  0.55231551    -0.07430
C2227       C  0.24313118  0.23443917  0.53103086     0.13440
C2228       C  0.22515254  0.26081200  0.52431538    -0.20920
C2229       C  0.19710599  0.26650913  0.54041182    -0.07430
C2230       C  0.18736113  0.24635595  0.56418407     0.13430
C2231       C  0.15914517  0.25353749  0.58414139    -0.24260
H2232       H  0.19667534  0.20375638  0.58772899     0.14720
H2233       H  0.23219236  0.27617084  0.50560765     0.14740
C2234       C  0.27473280  0.23015927  0.51625648    -0.24210
H2235       H  0.15533607  0.23554844  0.60224864     0.04960
H2236       H  0.13783267  0.25470425  0.56976416     0.08180
H2237       H  0.16254243  0.27619865  0.59604259     0.08180
H2238       H  0.27513657  0.20813559  0.50276286     0.08170
H2239       H  0.29290628  0.22910061  0.53447978     0.08170
H2240       H  0.28061275  0.24979503  0.50061900     0.04940
C2241       C  0.25468359  0.73574111  0.94155206    -0.20860
C2242       C  0.25512434  0.70600004  0.92805877    -0.07430
C2243       C  0.28144558  0.69645095  0.91056635     0.13440
C2244       C  0.30767610  0.71555210  0.90941944    -0.20920
C2245       C  0.30803574  0.74460276  0.92422650    -0.07430
C2246       C  0.28080334  0.75534368  0.93960939     0.13430
C2247       C  0.27974807  0.78665341  0.95532745    -0.24260
H2248       H  0.23494732  0.74252956  0.95595698     0.14720
H2249       H  0.32757233  0.70831808  0.89557869     0.14740
C2250       C  0.28232905  0.66530408  0.89428340    -0.24210
H2251       H  0.25749805  0.79024706  0.96825454     0.04960
H2252       H  0.28176332  0.80542078  0.93780935     0.08180
H2253       H  0.29921443  0.78857887  0.97208827     0.08180
H2254       H  0.26207934  0.66335310  0.87849237     0.08170
H2255       H  0.28140581  0.64602356  0.91128616     0.08170
H2256       H  0.30398915  0.66231034  0.88024075     0.04940
C2257       C  0.11157821  0.65201129  0.86405812    -0.20860
C2258       C  0.11892347  0.62850537  0.84243557    -0.07430
C2259       C  0.13110401  0.60022064  0.85429981     0.13440
C2260       C  0.13875033  0.59778958  0.88630725    -0.20920
C2261       C  0.13429251  0.62265195  0.90750299    -0.07430
C2262       C  0.11861143  0.64953203  0.89602630     0.13430
C2263       C  0.10981726  0.67653737  0.91674635    -0.24260
H2264       H  0.10186261  0.67358980  0.85541032     0.14720
H2265       H  0.14980943  0.57662972  0.89432204     0.14740
C2266       C  0.13745015  0.57244111  0.83389914    -0.24210
H2267       H  0.09536422  0.69395357  0.90435902     0.04960
H2268       H  0.13105150  0.68877185  0.92479087     0.08180
H2269       H  0.09593493  0.66812358  0.93691066     0.08180
H2270       H  0.16257084  0.56622499  0.83486633     0.08170
H2271       H  0.13103376  0.57642586  0.80937910     0.08170
H2272       H  0.12362573  0.55237180  0.84247133     0.04940
C2273       C  0.29085487  0.33149793  0.95360817    -0.20860
C2274       C  0.26071709  0.31852280  0.95199346    -0.07430
C2275       C  0.25772577  0.28596049  0.94940244     0.13440
C2276       C  0.28481887  0.26796622  0.94509521    -0.20920
C2277       C  0.31425103  0.28206996  0.94124460    -0.07430
C2278       C  0.31754567  0.31371224  0.94834049     0.13430
C2279       C  0.34822978  0.33007138  0.94462768    -0.24260
H2280       H  0.29373844  0.35628016  0.95709868     0.14720
H2281       H  0.28249275  0.24341421  0.93984884     0.14740
C2282       C  0.22637959  0.27029787  0.94844985    -0.24210
H2283       H  0.34738081  0.35418979  0.95388410     0.04960
H2284       H  0.35368391  0.33132373  0.91956967     0.08180
H2285       H  0.36691655  0.31725287  0.95689045     0.08180
H2286       H  0.21287810  0.27910395  0.92837771     0.08170
H2287       H  0.21331608  0.27502179  0.97024774     0.08170
H2288       H  0.22862439  0.24469040  0.94590683     0.04940
C2289       C  0.11417542  0.38702003  0.89927756    -0.20860
C2290       C  0.13561694  0.40996670  0.90857486    -0.07430
C2291       C  0.14516764  0.43203203  0.88570369     0.13440
C2292       C  0.13523687  0.42888641  0.85447077    -0.20920
C2293       C  0.11585028  0.40445539  0.84478872    -0.07430
C2294       C  0.10416715  0.38407367  0.86808871     0.13430
C2295       C  0.08126705  0.35873262  0.86017773    -0.24260
H2296       H  0.10610276  0.37032762  0.91633738     0.14720
H2297       H  0.14496742  0.44409133  0.83700483     0.14740
C2298       C  0.16772854  0.45777628  0.89318998    -0.24210
H2299       H  0.07271174  0.34658273  0.88131755     0.04960
H2300       H  0.09229918  0.34097998  0.84495188     0.08180
H2301       H  0.06077089  0.36894954  0.84828452     0.08180
H2302       H  0.19007019  0.44777008  0.90140445     0.08170
H2303       H  0.15756010  0.47326592  0.91128258     0.08170
H2304       H  0.17302707  0.47236414  0.87257572     0.04940
C2305       C  0.37404121  0.61594262  0.89772975    -0.20860
C2306       C  0.37216960  0.59670762  0.87095925    -0.07430
C2307       C  0.37962455  0.61089316  0.84190877     0.13440
C2308       C  0.38579910  0.64312062  0.84034636    -0.20920
C2309       C  0.38545205  0.66263667  0.86664512    -0.07430
C2310       C  0.38099960  0.64833625  0.89598251     0.13430
C2311       C  0.38282780  0.66713794  0.92543448    -0.24260
H2312       H  0.36911136  0.60582164  0.92025041     0.14720
H2313       H  0.38974839  0.65361670  0.81778041     0.14740
C2314       C  0.38003973  0.59294462  0.81174856    -0.24210
H2315       H  0.36514905  0.68588583  0.92545855     0.04960
H2316       H  0.40636806  0.67765705  0.92735522     0.08180
H2317       H  0.37871975  0.65256928  0.94633024     0.08180
H2318       H  0.35637684  0.58400629  0.80658957     0.08170
H2319       H  0.39700280  0.57347366  0.81317877     0.08170
H2320       H  0.38720652  0.60764470  0.79176021     0.04940
C2321       C  0.25352133  0.56440257  0.76381322    -0.20860
C2322       C  0.25273092  0.57561218  0.79443042    -0.07430
C2323       C  0.22618301  0.59202588  0.80519602     0.13440
C2324       C  0.19984388  0.59364855  0.78646325    -0.20920
C2325       C  0.19982664  0.58087732  0.75651801    -0.07430
C2326       C  0.22744208  0.56727956  0.74447243     0.13430
C2327       C  0.22907596  0.55473804  0.71178752    -0.24260
H2328       H  0.27365930  0.55128916  0.75584716     0.14720
H2329       H  0.17959282  0.60637006  0.79471030     0.14740
C2330       C  0.22536691  0.60701595  0.83695540    -0.24210
H2331       H  0.25149491  0.54252119  0.70715664     0.04960
H2332       H  0.22715141  0.57403503  0.69486495     0.08180
H2333       H  0.20976483  0.53804554  0.70794454     0.08180
H2334       H  0.24535609  0.62318805  0.83920232     0.08170
H2335       H  0.22673583  0.58927098  0.85550346     0.08170
H2336       H  0.20353721  0.62050571  0.84081070     0.04940
C2337       C  0.38136317  0.41977184  0.84054723    -0.20860
C2338       C  0.37404780  0.43353919  0.86935103    -0.07430
C2339       C  0.37871659  0.41490016  0.89633586     0.13440
C2340       C  0.38850312  0.38331765  0.89339612    -0.20920
C2341       C  0.39312379  0.36879222  0.86427698    -0.07430
C2342       C  0.39056464  0.38831627  0.83746319     0.13430
C2343       C  0.39668782  0.37666562  0.80483237    -0.24260
H2344       H  0.37877614  0.43359433  0.81970977     0.14720
H2345       H  0.39176933  0.36965885  0.91417605     0.14740
C2346       C  0.37242208  0.42748538  0.92845479    -0.24210
H2347       H  0.39490643  0.39547476  0.78729327     0.04960
H2348       H  0.37919145  0.35881858  0.79843042     0.08180
H2349       H  0.42069038  0.36703296  0.80304470     0.08180
H2350       H  0.34753723  0.43434310  0.93070584     0.08170
H2351       H  0.38763787  0.44784273  0.93292650     0.08170
H2352       H  0.37723035  0.40993429  0.94670348     0.04940
C2353       C  0.20917154  0.48687781  0.80221237    -0.20860
C2354       C  0.23957642  0.48113698  0.79065772    -0.07430
C2355       C  0.24421325  0.48014028  0.75809036     0.13440
C2356       C  0.21803357  0.48041573  0.73872080    -0.20920
C2357       C  0.18768739  0.47805689  0.75129372    -0.07430
C2358       C  0.18323490  0.48640026  0.78252841     0.13430
C2359       C  0.15123230  0.49398161  0.79498458    -0.24260
H2360       H  0.20557018  0.49145568  0.82674073     0.14720
H2361       H  0.22132396  0.47611521  0.71406894     0.14740
C2362       C  0.27610963  0.47634805  0.74353627    -0.24210
H2363       H  0.15195543  0.50048755  0.81995511     0.04960
H2364       H  0.13536691  0.47388552  0.79245392     0.08180
H2365       H  0.14152095  0.51397380  0.78193035     0.08180
H2366       H  0.28763038  0.45525348  0.75291721     0.08170
H2367       H  0.29063646  0.49708823  0.74831999     0.08170
H2368       H  0.27482445  0.47375566  0.71789699     0.04940
C2369       C  0.12125344  0.62008312  0.36174626    -0.20860
C2370       C  0.11484833  0.64308321  0.33934031    -0.07430
C2371       C  0.10822812  0.67365442  0.34999239     0.13440
C2372       C  0.10845952  0.68043912  0.38202070    -0.20920
C2373       C  0.11583301  0.65786844  0.40426989    -0.07430
C2374       C  0.12171816  0.62712449  0.39402289     0.13430
C2375       C  0.12941388  0.60209510  0.41706618    -0.24260
H2376       H  0.12750114  0.59692658  0.35389600     0.14720
H2377       H  0.10411024  0.70412593  0.38963210     0.14740
C2378       C  0.10281399  0.70041823  0.32812457    -0.24210
H2379       H  0.13350238  0.57934740  0.40545449     0.04960
H2380       H  0.10975950  0.59940213  0.43378808     0.08180
H2381       H  0.15081946  0.60847354  0.42996706     0.08180
H2382       H  0.08022592  0.71162411  0.33400242     0.08170
H2383       H  0.10215296  0.69331962  0.30337761     0.08170
H2384       H  0.12167622  0.71785452  0.33089056     0.04940
C2385       C  0.03299576  0.73071428  0.29506533    -0.20860
C2386       C  0.04004557  0.76168170  0.28679081    -0.07430
C2387       C  0.04622890  0.76842914  0.25532013     0.13440
C2388       C  0.05023038  0.74353744  0.23449547    -0.20920
C2389       C  0.05021427  0.71246630  0.24506426    -0.07430
C2390       C  0.03772215  0.70604968  0.27453174     0.13430
C2391       C  0.03213318  0.67335804  0.28559844    -0.24260
H2392       H  0.02528948  0.72531695  0.31846555     0.14720
H2393       H  0.05829609  0.74837148  0.21106309     0.14740
C2394       C  0.05068679  0.80117025  0.24389514    -0.24210
H2395       H  0.02098130  0.67294023  0.30895767     0.04960
H2396       H  0.05441056  0.66070097  0.28753966     0.08180
H2397       H  0.01670208  0.66108187  0.26901980     0.08180
H2398       H  0.07074979  0.81204067  0.25591927     0.08170
H2399       H  0.02921716  0.81497090  0.24840674     0.08170
H2400       H  0.05551532  0.80183788  0.21851600     0.04940
C2401       C  0.11733732  0.65125000  0.07674107    -0.20860
C2402       C  0.13441731  0.62488479  0.06748836    -0.07430
C2403       C  0.13825874  0.60077496  0.08977836     0.13440
C2404       C  0.12758827  0.60508658  0.12077529    -0.20920
C2405       C  0.11320967  0.63280688  0.13082318    -0.07430
C2406       C  0.10649389  0.65547876  0.10754704     0.13430
C2407       C  0.08815433  0.68468901  0.11459558    -0.24260
H2408       H  0.11336435  0.66949001  0.05981828     0.14720
H2409       H  0.13224540  0.58707302  0.13773731     0.14740
C2410       C  0.15527497  0.57112439  0.08180303    -0.24210
H2411       H  0.08185633  0.69737910  0.09307088     0.04960
H2412       H  0.10216057  0.70091601  0.12887291     0.08180
H2413       H  0.06607916  0.67869436  0.12682107     0.08180
H2414       H  0.17950599  0.57650882  0.07446953     0.08170
H2415       H  0.14294564  0.55872422  0.06288625     0.08170
H2416       H  0.15655588  0.55512125  0.10200150     0.04940
C2417       C  0.22068274  0.56263704  0.24217021    -0.20860
C2418       C  0.18971052  0.56379308  0.23110767    -0.07430
C2419       C  0.18364038  0.55217085  0.20136863     0.13440
C2420       C  0.20858939  0.54722803  0.18110923    -0.20920
C2421       C  0.23990740  0.55226931  0.19005328    -0.07430
C2422       C  0.24605734  0.55807306  0.22171650     0.13430
C2423       C  0.27874028  0.56164245  0.23377261    -0.24260
H2424       H  0.22524588  0.57038935  0.26569068     0.14720
H2425       H  0.20306989  0.54034856  0.15755715     0.14740
C2426       C  0.15094632  0.54897757  0.18939598    -0.24210
H2427       H  0.27891976  0.56669970  0.25908903     0.04960
H2428       H  0.29058133  0.58112540  0.22167075     0.08180
H2429       H  0.29211290  0.53991786  0.22987921     0.08180
H2430       H  0.14063033  0.57214559  0.18649379     0.08170
H2431       H  0.13650175  0.53574896  0.20622565     0.08170
H2432       H  0.15025371  0.53729154  0.16639364     0.04940
C2433       C  0.28220710  0.68785274  0.16563767    -0.20860
C2434       C  0.27608058  0.71333756  0.14607488    -0.07430
C2435       C  0.24522031  0.71980279  0.13715443     0.13440
C2436       C  0.22111714  0.70261695  0.15041316    -0.20920
C2437       C  0.22707545  0.68069967  0.17378959    -0.07430
C2438       C  0.25794823  0.67181637  0.18026774     0.13430
C2439       C  0.26543863  0.64613456  0.20282728    -0.24260
H2440       H  0.30609953  0.68207942  0.17147326     0.14720
H2441       H  0.19727289  0.70893545  0.14498141     0.14740
C2442       C  0.23713797  0.74646415  0.11615719    -0.24210
H2443       H  0.29082744  0.64090934  0.20313781     0.04960
H2444       H  0.25297534  0.62461390  0.19596937     0.08180
H2445       H  0.25848296  0.65284085  0.22678577     0.08180
H2446       H  0.21170503  0.74786414  0.11156346     0.08170
H2447       H  0.24937219  0.74327228  0.09371121     0.08170
H2448       H  0.24441270  0.76875824  0.12689951     0.04940
C2449       C  0.39879877  0.64362137  0.12670997    -0.20860
C2450       C  0.39070380  0.66342022  0.10195731    -0.07430
C2451       C  0.37575268  0.64958986  0.07619825     0.13440
C2452       C  0.36754492  0.61759830  0.07659015    -0.20920
C2453       C  0.37312812  0.59842591  0.10259145    -0.07430
C2454       C  0.39039751  0.61172422  0.12744153     0.13430
C2455       C  0.39978892  0.59278298  0.15527308    -0.24260
H2456       H  0.40997337  0.65379844  0.14682449     0.14720
H2457       H  0.35475857  0.60809341  0.05714017     0.14740
C2458       C  0.36670082  0.66907711  0.04898795    -0.24210
H2459       H  0.41537894  0.60605386  0.17095787     0.04960
H2460       H  0.41256804  0.57163044  0.14752862     0.08180
H2461       H  0.37890868  0.58613768  0.16907151     0.08180
H2462       H  0.38812392  0.67921974  0.03857956     0.08170
H2463       H  0.35075159  0.68787835  0.05690455     0.08170
H2464       H  0.35463182  0.65530071  0.03083351     0.04940
C2465       C  0.28179006  0.76313949  0.03593798    -0.20860
C2466       C  0.31317401  0.75428512  0.03097219    -0.07430
C2467       C  0.31916352  0.72654796  0.01469406     0.13440
C2468       C  0.29542863  0.70425096  0.01320202    -0.20920
C2469       C  0.26492195  0.71107408  0.02366758    -0.07430
C2470       C  0.25736346  0.74211344  0.03119334     0.13430
C2471       C  0.22410083  0.75293896  0.03539221    -0.24260
H2472       H  0.27635955  0.78579059  0.04564263     0.14720
H2473       H  0.30053139  0.68172754  0.00302038     0.14740
C2474       C  0.34922821  0.72160788  0.99696196    -0.24210
H2475       H  0.22287813  0.77753212  0.04323322     0.04960
H2476       H  0.21183945  0.73838556  0.05284858     0.08180
H2477       H  0.21169233  0.75131268  0.01290107     0.08180
H2478       H  0.36976760  0.72189882  0.01225607     0.08170
H2479       H  0.35201449  0.74048865  0.97967473     0.08170
H2480       H  0.34918023  0.69912213  0.98422924     0.04940
C2481       C  0.28634472  0.82614705  0.24761909    -0.20860
C2482       C  0.30500733  0.84787688  0.26296602    -0.07430
C2483       C  0.33637076  0.85232602  0.25362261     0.13440
C2484       C  0.34798211  0.83489646  0.22851316    -0.20920
C2485       C  0.32883923  0.81367412  0.21293562    -0.07430
C2486       C  0.29785293  0.80869879  0.22300558     0.13430
C2487       C  0.27691946  0.78435699  0.20869699    -0.24260
H2488       H  0.26260263  0.82215913  0.25549621     0.14720
H2489       H  0.37158052  0.83870678  0.22035208     0.14740
C2490       C  0.35762824  0.87584537  0.26851458    -0.24210
H2491       H  0.25414812  0.78281775  0.22102500     0.04960
H2492       H  0.28830260  0.76119954  0.20996611     0.08180
H2493       H  0.27161538  0.79007316  0.18420975     0.08180
H2494       H  0.34581160  0.89000321  0.28663642     0.08170
H2495       H  0.36644805  0.89214285  0.25051877     0.08170
H2496       H  0.37781673  0.86374161  0.27912826     0.04940
C2497       C  0.22714575  0.77644070  0.29194117    -0.20860
C2498       C  0.20755546  0.79792168  0.30718942    -0.07430
C2499       C  0.17466226  0.79528656  0.30429610     0.13440
C2500       C  0.16257590  0.77145342  0.28582927    -0.20920
C2501       C  0.18247162  0.75074744  0.27041558    -0.07430
C2502       C  0.21496668  0.75278325  0.27372898     0.13430
C2503       C  0.23676068  0.72939285  0.25884354    -0.24260
H2504       H  0.25227443  0.77819856  0.29394873     0.14720
H2505       H  0.13753160  0.76835882  0.28403777     0.14740
C2506       C  0.15203445  0.81637282  0.32121799    -0.24210
H2507       H  0.26162455  0.73484509  0.26347499     0.04960
H2508       H  0.23340679  0.72921115  0.23329256     0.08180
H2509       H  0.23193373  0.70586633  0.26823775     0.08180
H2510       H  0.15410369  0.84056026  0.31259129     0.08170
H2511       H  0.15661296  0.81556239  0.34652186     0.08170
H2512       H  0.12743648  0.80913917  0.31766045     0.04940
C2513       C  0.13020803  0.92433628  0.36581606    -0.20860
C2514       C  0.15363184  0.90532605  0.37874104    -0.07430
C2515       C  0.14423696  0.87670291  0.39187575     0.13440
C2516       C  0.11240588  0.86839065  0.39320856    -0.20920
C2517       C  0.08911733  0.88690578  0.37973236    -0.07430
C2518       C  0.09827743  0.91539084  0.36592564     0.13430
C2519       C  0.07445841  0.93627644  0.35113952    -0.24260
H2520       H  0.13710525  0.94565449  0.35432483     0.14720
H2521       H  0.10588632  0.84611609  0.40302876     0.14740
C2522       C  0.16819268  0.85371865  0.40237711    -0.24210
H2523       H  0.08520383  0.95798892  0.34218892     0.04960
H2524       H  0.05631273  0.94273239  0.36854281     0.08180
H2525       H  0.06331406  0.92416078  0.33133354     0.08180
H2526       H  0.18097663  0.86431093  0.42180395     0.08170
H2527       H  0.18484898  0.84829891  0.38330779     0.08170
H2528       H  0.15752468  0.83148717  0.40984479     0.04940
C2529       C  0.23508994  0.77551503  0.45019402    -0.20860
C2530       C  0.20388261  0.78364206  0.45596206    -0.07430
C2531       C  0.19690039  0.81522798  0.46396448     0.13440
C2532       C  0.22009369  0.83792582  0.45982792    -0.20920
C2533       C  0.24850855  0.83005525  0.44610665    -0.07430
C2534       C  0.25771205  0.79851685  0.44603055     0.13430
C2535       C  0.29058089  0.78894849  0.43799449    -0.24260
H2536       H  0.24157975  0.75133758  0.44702943     0.14720
H2537       H  0.21443395  0.86230816  0.46292997     0.14740
C2538       C  0.16552223  0.82613719  0.47619291    -0.24210
H2539       H  0.30012949  0.77445699  0.45702386     0.04960
H2540       H  0.30604164  0.80944424  0.43502262     0.08180
H2541       H  0.29077727  0.77523499  0.41610593     0.08180
H2542       H  0.16118410  0.81702735  0.49969609     0.08170
H2543       H  0.14623230  0.81956889  0.46057434     0.08170
H2544       H  0.16460961  0.85184329  0.47853842     0.04940
C2545       C  0.64364700  0.89258463  0.10002968    -0.20860
C2546       C  0.62046559  0.87177360  0.11018940    -0.07430
C2547       C  0.59322844  0.88436079  0.12397913     0.13440
C2548       C  0.59070769  0.91683945  0.12905470    -0.20920
C2549       C  0.61512392  0.93767607  0.12139739    -0.07430
C2550       C  0.64141624  0.92507233  0.10521383     0.13430
C2551       C  0.66792531  0.94523103  0.09403782    -0.24260
H2552       H  0.66474659  0.88306397  0.08968819     0.14720
H2553       H  0.57020024  0.92561918  0.14105466     0.14740
C2554       C  0.56750400  0.86324277  0.13498897    -0.24210
H2555       H  0.68499671  0.93185072  0.07977130     0.04960
H2556       H  0.68081971  0.95492118  0.11409587     0.08180
H2557       H  0.65872956  0.96433253  0.07938332     0.08180
H2558       H  0.57655913  0.84681531  0.15264761     0.08170
H2559       H  0.55839943  0.84992802  0.11490379     0.08170
H2560       H  0.54783032  0.87644055  0.14560653     0.04940
C2561       C  0.71207043  0.93177861  0.27750285    -0.20860
C2562       C  0.73775383  0.94929643  0.28708959    -0.07430
C2563       C  0.74862336  0.97406546  0.26869663     0.13440
C2564       C  0.73158229  0.98245706  0.24225444    -0.20920
C2565       C  0.70475381  0.96581434  0.23372712    -0.07430
C2566       C  0.69577443  0.93950915  0.25075285     0.13430
C2567       C  0.66790577  0.92033643  0.24192573    -0.24260
H2568       H  0.70459557  0.91191269  0.29108983     0.14720
H2569       H  0.73772843  0.00340152  0.22966712     0.14740
C2570       C  0.77724264  0.99212015  0.27762627    -0.24210
H2571       H  0.67589010  0.89643561  0.23652703     0.04960
H2572       H  0.65592324  0.92905791  0.22091041     0.08180
H2573       H  0.65085787  0.92012607  0.26147906     0.08180
H2574       H  0.79782313  0.97641816  0.27791060     0.08170
H2575       H  0.77394286  0.00242304  0.30109183     0.08170
H2576       H  0.78208663  0.01124179  0.26098970     0.04940
C2577       C  0.74714187  0.07494579  0.26748327    -0.20860
C2578       C  0.73808622  0.06493661  0.29744466    -0.07430
C2579       C  0.70998123  0.04857161  0.30083961     0.13440
C2580       C  0.68840098  0.04960277  0.27666900    -0.20920
C2581       C  0.69576118  0.06341288  0.24785052    -0.07430
C2582       C  0.72614948  0.07469369  0.24266763     0.13430
C2583       C  0.73584936  0.08842809  0.21191751    -0.24260
H2584       H  0.76964803  0.08589734  0.26404894     0.14720
H2585       H  0.66594679  0.03854459  0.28005149     0.14740
C2586       C  0.70389181  0.02786503  0.32840699    -0.24210
H2587       H  0.75983943  0.09811250  0.21273138     0.04960
H2588       H  0.71967746  0.10756996  0.20562279     0.08180
H2589       H  0.73554843  0.07027380  0.19357807     0.08180
H2590       H  0.70373921  0.04088732  0.35047383     0.08170
H2591       H  0.72234532  0.00979188  0.32958113     0.08170
H2592       H  0.68110755  0.01588940  0.32636490     0.04940
C2593       C  0.58651350  0.11841445  0.12387344    -0.20860
C2594       C  0.61044767  0.09732583  0.11582785    -0.07430
C2595       C  0.63414787  0.10770741  0.09510294     0.13440
C2596       C  0.63510079  0.13922099  0.08597302    -0.20920
C2597       C  0.61310298  0.16107201  0.09683257    -0.07430
C2598       C  0.58778946  0.15003638  0.11492578     0.13430
C2599       C  0.56326195  0.17209567  0.12662173    -0.24260
H2600       H  0.56803285  0.11080821  0.13938928     0.14720
H2601       H  0.65464638  0.14740961  0.07213173     0.14740
C2602       C  0.65895834  0.08591134  0.08286113    -0.24210
H2603       H  0.54514484  0.16012362  0.14074983     0.04960
H2604       H  0.55172712  0.18306234  0.10641427     0.08180
H2605       H  0.57420817  0.19022355  0.14131630     0.08180
H2606       H  0.64783271  0.06531189  0.07201758     0.08170
H2607       H  0.67455848  0.07835108  0.10184189     0.08170
H2608       H  0.67381931  0.09724489  0.06494528     0.04940
C2609       C  0.40977584  0.88861020  0.09763642    -0.20860
C2610       C  0.37986941  0.87626256  0.09189711    -0.07430
C2611       C  0.35444973  0.89755193  0.09283074     0.13440
C2612       C  0.35853639  0.92784331  0.10478849    -0.20920
C2613       C  0.38741594  0.93843077  0.11615204    -0.07430
C2614       C  0.41380009  0.91887307  0.11068716     0.13430
C2615       C  0.44603244  0.92879232  0.12009233    -0.24260
H2616       H  0.42991407  0.87372283  0.09452095     0.14720
H2617       H  0.33832583  0.94292732  0.10659670     0.14740
C2618       C  0.32254566  0.88851165  0.08117104    -0.24210
H2619       H  0.46376107  0.91072083  0.11450185     0.04960
H2620       H  0.44665996  0.93299153  0.14554190     0.08180
H2621       H  0.45263567  0.95032514  0.10751747     0.08180
H2622       H  0.31135054  0.87117278  0.09659349     0.08170
H2623       H  0.32464200  0.87886198  0.05729686     0.08170
H2624       H  0.30657723  0.90885086  0.08020457     0.04940
C2625       C  0.31899780  0.98898927  0.28336484    -0.20860
C2626       C  0.30627646  0.98360749  0.25368335    -0.07430
C2627       C  0.27345222  0.98222265  0.25090591     0.13440
C2628       C  0.25498011  0.98311041  0.27804328    -0.20920
C2629       C  0.26876421  0.98034310  0.30759161    -0.07430
C2630       C  0.30045914  0.98800402  0.31024301     0.13430
C2631       C  0.31581583  0.99265004  0.34110715    -0.24260
H2632       H  0.34380181  0.99312754  0.28589004     0.14720
H2633       H  0.23012655  0.97889884  0.27608627     0.14740
C2634       C  0.25784971  0.97641008  0.22017636    -0.24210
H2635       H  0.32725295  0.01578966  0.34164483     0.04960
H2636       H  0.33376385  0.97446089  0.34412261     0.08180
H2637       H  0.29895201  0.99175100  0.36071480     0.08180
H2638       H  0.26702767  0.95458275  0.20973799     0.08170
H2639       H  0.26215908  0.99587006  0.20404215     0.08170
H2640       H  0.23216668  0.97399889  0.22279831     0.04940
C2641       C  0.56232761  0.76433067  0.21078579    -0.20860
C2642       C  0.55274907  0.77062120  0.17998145    -0.07430
C2643       C  0.53082201  0.79405586  0.17488570     0.13440
C2644       C  0.52473439  0.81478946  0.19891448    -0.20920
C2645       C  0.54034652  0.81307678  0.22792921    -0.07430
C2646       C  0.55690916  0.78582387  0.23492132     0.13430
C2647       C  0.56950271  0.77968688  0.26687844    -0.24260
H2648       H  0.57695047  0.74431970  0.21539326     0.14720
H2649       H  0.50834400  0.83337475  0.19422347     0.14740
C2650       C  0.51368695  0.79724721  0.14450676    -0.24210
H2651       H  0.58227128  0.75722242  0.26783275     0.04960
H2652       H  0.54991252  0.77865930  0.28384979     0.08180
H2653       H  0.58583819  0.79833429  0.27386778     0.08180
H2654       H  0.50167123  0.77507663  0.13906058     0.08170
H2655       H  0.52976000  0.80316492  0.12521502     0.08170
H2656       H  0.49576588  0.81590930  0.14560847     0.04940
C2657       C  0.60864439  0.92973305  0.34810277    -0.20860
C2658       C  0.58734897  0.90575154  0.35542989    -0.07430
C2659       C  0.59850711  0.88088054  0.37402767     0.13440
C2660       C  0.63041865  0.87940439  0.38209967    -0.20920
C2661       C  0.65221827  0.90193573  0.37242799    -0.07430
C2662       C  0.64065595  0.92812313  0.35610984     0.13430
C2663       C  0.66140617  0.95409598  0.34516493    -0.24260
H2664       H  0.60075837  0.94919667  0.33424414     0.14720
H2665       H  0.63885052  0.85936669  0.39478612     0.14740
C2666       C  0.57720644  0.85539866  0.38536201    -0.24210
H2667       H  0.65289986  0.97633172  0.35530368     0.04960
H2668       H  0.66057681  0.95568637  0.31943681     0.08180
H2669       H  0.68599684  0.95113161  0.35203769     0.08180
H2670       H  0.56937705  0.84084052  0.36561616     0.08170
H2671       H  0.55671885  0.86569204  0.39755114     0.08170
H2672       H  0.58917129  0.83971591  0.40194880     0.04940
C2673       C  0.43315453  0.84172246  0.20453243    -0.20860
C2674       C  0.44735361  0.82946148  0.23076869    -0.07430
C2675       C  0.45476450  0.79718945  0.23115744     0.13440
C2676       C  0.44987481  0.77919890  0.20413261    -0.20920
C2677       C  0.43810712  0.79263594  0.17687543    -0.07430
C2678       C  0.42888229  0.82409453  0.17797803     0.13430
C2679       C  0.41245170  0.83907267  0.15192774    -0.24260
H2680       H  0.42609948  0.86595631  0.20433391     0.14720
H2681       H  0.45539016  0.75460551  0.20421124     0.14740
C2682       C  0.46788030  0.78142161  0.25943850    -0.24210
H2683       H  0.40572543  0.86355841  0.15683978     0.04960
H2684       H  0.39096352  0.82565166  0.14819997     0.08180
H2685       H  0.42802208  0.83853669  0.13139478     0.08180
H2686       H  0.45172738  0.78474632  0.27945278     0.08170
H2687       H  0.49110217  0.79099317  0.26516524     0.08170
H2688       H  0.47087972  0.75603177  0.25570804     0.04940
C2689       C  0.41512408  0.87651023  0.36959071    -0.20860
C2690       C  0.42732976  0.90555533  0.36100763    -0.07430
C2691       C  0.40763125  0.93200769  0.36536538     0.13440
C2692       C  0.37613181  0.92806228  0.37513191    -0.20920
C2693       C  0.36290363  0.89848817  0.37964057    -0.07430
C2694       C  0.38371663  0.87242088  0.37851172     0.13430
C2695       C  0.37357603  0.83957708  0.38586638    -0.24260
H2696       H  0.42994856  0.85615280  0.36769170     0.14720
H2697       H  0.36142545  0.94824125  0.37815793     0.14740
C2698       C  0.41893841  0.96449706  0.35888231    -0.24210
H2699       H  0.39359266  0.82314899  0.38645463     0.04960
H2700       H  0.35753205  0.83081933  0.36771790     0.08180
H2701       H  0.36220508  0.83883093  0.40911132     0.08180
H2702       H  0.42494265  0.96695226  0.33388969     0.08170
H2703       H  0.43966333  0.96962717  0.37334503     0.08170
H2704       H  0.40082288  0.98220623  0.36442844     0.04940
C2705       C  0.59690522  0.10158902  0.35905223    -0.20860
C2706       C  0.57916318  0.12927584  0.35946061    -0.07430
C2707       C  0.59324892  0.15614076  0.37270252     0.13440
C2708       C  0.62495402  0.15539873  0.38130104    -0.20920
C2709       C  0.64373126  0.12884775  0.37708755    -0.07430
C2710       C  0.62873975  0.10106707  0.36782008     0.13430
C2711       C  0.64602348  0.07085149  0.36557485    -0.24260
H2712       H  0.58652930  0.08048542  0.35004130     0.14720
H2713       H  0.63603289  0.17677651  0.38876514     0.14740
C2714       C  0.57566504  0.18628365  0.37707491    -0.24210
H2715       H  0.63383803  0.05301595  0.37976515     0.04960
H2716       H  0.67002801  0.07298499  0.37457586     0.08180
H2717       H  0.64682242  0.06303863  0.34099812     0.08180
H2718       H  0.55350512  0.18196184  0.38985147     0.08170
H2719       H  0.57082368  0.19717421  0.35427289     0.08170
H2720       H  0.58930925  0.20339962  0.39073670     0.04940
C2721       C  0.52780406  0.20938266  0.20089410    -0.20860
C2722       C  0.54335319  0.21228301  0.22946899    -0.07430
C2723       C  0.56212742  0.23826435  0.23517384     0.13440
C2724       C  0.56910167  0.25794421  0.21036353    -0.20920
C2725       C  0.55659774  0.25279646  0.18045613    -0.07430
C2726       C  0.53303708  0.23043285  0.17674318     0.13430
C2727       C  0.51226653  0.22984606  0.14859658    -0.24260
H2728       H  0.51122636  0.19071793  0.19752678     0.14720
H2729       H  0.58595906  0.27628432  0.21410866     0.14740
C2730       C  0.57577480  0.24453624  0.26675897    -0.24210
H2731       H  0.49408104  0.21156021  0.15055407     0.04960
H2732       H  0.52563101  0.22541502  0.12702407     0.08180
H2733       H  0.50025148  0.25261824  0.14648238     0.08180
H2734       H  0.58983187  0.22439329  0.27457910     0.08170
H2735       H  0.55666740  0.24877624  0.28379473     0.08170
H2736       H  0.59106569  0.26535333  0.26659689     0.04940
C2737       C  0.16636407  0.40700006  0.09288298    -0.20860
C2738       C  0.14190462  0.40773639  0.07153566    -0.07430
C2739       C  0.11090774  0.40628172  0.08308939     0.13440
C2740       C  0.10535462  0.40308049  0.11565844    -0.20920
C2741       C  0.13022472  0.40007530  0.13682745    -0.07430
C2742       C  0.16115885  0.40237536  0.12480146     0.13430
C2743       C  0.18933041  0.39755275  0.14495737    -0.24260
H2744       H  0.19015631  0.40785799  0.08412615     0.14720
H2745       H  0.08164329  0.40107984  0.12430169     0.14740
C2746       C  0.08392181  0.40771624  0.06105695    -0.24210
H2747       H  0.21136132  0.40410199  0.13291140     0.04960
H2748       H  0.19096982  0.37261876  0.15077674     0.08180
H2749       H  0.18759941  0.41139358  0.16658251     0.08180
H2750       H  0.08530120  0.38799901  0.04441639     0.08170
H2751       H  0.08470856  0.42991785  0.04796410     0.08170
H2752       H  0.06120700  0.40643084  0.07357083     0.04940
C2753       C  0.21601665  0.47516653  0.17574215    -0.20860
C2754       C  0.24642219  0.47223257  0.18754760    -0.07430
C2755       C  0.25044337  0.46732932  0.21961488     0.13440
C2756       C  0.22386904  0.46299202  0.23833142    -0.20920
C2757       C  0.19358342  0.46204819  0.22552745    -0.07430
C2758       C  0.18964022  0.47035956  0.19408607     0.13430
C2759       C  0.15825009  0.47166764  0.17844625    -0.24260
H2760       H  0.21259984  0.48051701  0.15140568     0.14720
H2761       H  0.22707454  0.45740040  0.26264009     0.14740
C2762       C  0.28230008  0.46423542  0.23387996    -0.24210
H2763       H  0.15972563  0.48174513  0.15474619     0.04960
H2764       H  0.14167166  0.48573792  0.19234970     0.08180
H2765       H  0.14861305  0.44811400  0.17597290     0.08180
H2766       H  0.29548408  0.48618077  0.23121866     0.08170
H2767       H  0.29539101  0.44506809  0.22238322     0.08170
H2768       H  0.28084912  0.45896622  0.25909645     0.04940
C2769       C  0.12645172  0.42011806  0.36838197    -0.20860
C2770       C  0.11089526  0.40279151  0.34537905    -0.07430
C2771       C  0.09218349  0.37767880  0.35530254     0.13440
C2772       C  0.08893807  0.37054053  0.38712242    -0.20920
C2773       C  0.10577185  0.38654239  0.40990128    -0.07430
C2774       C  0.12433823  0.41212925  0.40037247     0.13430
C2775       C  0.14249251  0.43053295  0.42385352    -0.24260
H2776       H  0.14208868  0.43852836  0.36112300     0.14720
H2777       H  0.07534862  0.35041652  0.39398257     0.14740
C2778       C  0.07784139  0.35650966  0.33184763    -0.24210
H2779       H  0.15521500  0.45014937  0.41284846     0.04960
H2780       H  0.15986681  0.41538559  0.43539207     0.08180
H2781       H  0.12627161  0.44024941  0.44162905     0.08180
H2782       H  0.09587534  0.34728117  0.31566617     0.08170
H2783       H  0.06048507  0.36997670  0.31850864     0.08170
H2784       H  0.06666431  0.33633052  0.34323394     0.04940
C2785       C  0.03435103  0.33173984  0.27404442    -0.20860
C2786       C  0.05204035  0.32547672  0.24756134    -0.07430
C2787       C  0.05826380  0.29398211  0.23944838     0.13440
C2788       C  0.05217229  0.27066416  0.26131494    -0.20920
C2789       C  0.04000639  0.27798716  0.29066100    -0.07430
C2790       C  0.02874115  0.30886224  0.29627839     0.13430
C2791       C  0.01028006  0.31927527  0.32462362    -0.24260
H2792       H  0.02677062  0.35540639  0.27847755     0.14720
H2793       H  0.05855657  0.24680978  0.25609338     0.14740
C2794       C  0.07188433  0.28444729  0.20842314    -0.24210
H2795       H  0.01193001  0.34478732  0.32812925     0.04960
H2796       H  0.01858751  0.30896906  0.34648310     0.08180
H2797       H  0.98517224  0.31524956  0.32104410     0.08180
H2798       H  0.09655726  0.29187964  0.20633142     0.08170
H2799       H  0.05785436  0.29470400  0.18941577     0.08170
H2800       H  0.07160687  0.25880557  0.20533156     0.04940
C2801       C  0.27414875  0.34348151  0.16339596    -0.20860
C2802       C  0.26973402  0.31404318  0.14982408    -0.07430
C2803       C  0.24083627  0.29909617  0.15280854     0.13440
C2804       C  0.21834744  0.31219779  0.17237590    -0.20920
C2805       C  0.22439693  0.33934101  0.18994656    -0.07430
C2806       C  0.25192215  0.35629987  0.18376156     0.13430
C2807       C  0.25877088  0.38698818  0.19913211    -0.24260
H2808       H  0.29646116  0.35500898  0.16043424     0.14720
H2809       H  0.19654099  0.29981279  0.17528528     0.14740
C2810       C  0.23468915  0.26791171  0.13798486    -0.24210
H2811       H  0.28116532  0.39700860  0.19077488     0.04960
H2812       H  0.26046976  0.38395439  0.22466205     0.08180
H2813       H  0.24000450  0.40386555  0.19370757     0.08180
H2814       H  0.25110954  0.25026190  0.14722332     0.08170
H2815       H  0.23780171  0.26967332  0.11246291     0.08170
H2816       H  0.21057980  0.25965027  0.14268940     0.04940
C2817       C  0.35851427  0.13921811  0.09528944    -0.20860
C2818       C  0.38470480  0.15895700  0.09610886    -0.07430
C2819       C  0.41416652  0.14475579  0.10147609     0.13440
C2820       C  0.41551336  0.11309806  0.11085714    -0.20920
C2821       C  0.38848010  0.09445732  0.11403826    -0.07430
C2822       C  0.35978071  0.10766885  0.10400496     0.13430
C2823       C  0.32960018  0.08964736  0.10381810    -0.24260
H2824       H  0.33599338  0.14931954  0.08989788     0.14720
H2825       H  0.43797858  0.10328729  0.11686428     0.14740
C2826       C  0.44464734  0.16180339  0.09800804    -0.24210
H2827       H  0.31001803  0.10348212  0.09420305     0.04960
H2828       H  0.32284510  0.08310837  0.12785548     0.08180
H2829       H  0.33221229  0.06858405  0.08906186     0.08180
H2830       H  0.45786724  0.16080651  0.12007527     0.08170
H2831       H  0.44171610  0.18640945  0.09133256     0.08170
H2832       H  0.45890943  0.15030474  0.07965098     0.04940
C2833       C  0.42110875  0.20391988  0.22131036    -0.20860
C2834       C  0.43964338  0.21656731  0.24466419    -0.07430
C2835       C  0.45279371  0.24637235  0.24005382     0.13440
C2836       C  0.44896733  0.26141633  0.21129014    -0.20920
C2837       C  0.43463157  0.24616232  0.18626488    -0.07430
C2838       C  0.42130023  0.21661865  0.19156831     0.13430
C2839       C  0.40758808  0.19793584  0.16590469    -0.24260
H2840       H  0.41136769  0.18087501  0.22469848     0.14720
H2841       H  0.45831159  0.28458684  0.20800972     0.14740
C2842       C  0.47254747  0.26184268  0.26432500    -0.24210
H2843       H  0.39774799  0.17539801  0.17381225     0.04960
H2844       H  0.42595364  0.19331086  0.14845260     0.08180
H2845       H  0.38889663  0.21164922  0.15546688     0.08180
H2846       H  0.46254782  0.28498431  0.27012214     0.08170
H2847       H  0.47364234  0.24814966  0.28607728     0.08170
H2848       H  0.49664418  0.26495275  0.25521175     0.04940
C2849       C  0.38724808  0.42073689  0.08187788    -0.20860
C2850       C  0.37879668  0.43734926  0.10917459    -0.07430
C2851       C  0.38240086  0.42126786  0.13788820     0.13440
C2852       C  0.38949272  0.38923186  0.13795531    -0.20920
C2853       C  0.39361404  0.37161690  0.11057438    -0.07430
C2854       C  0.39551733  0.38857076  0.08231212     0.13430
C2855       C  0.40669357  0.37415090  0.05243524    -0.24260
H2856       H  0.38658312  0.43264998  0.05973580     0.14720
H2857       H  0.38982547  0.37715107  0.16004068     0.14740
C2858       C  0.37740946  0.43671634  0.16907897    -0.24210
H2859       H  0.42849235  0.38590633  0.04487741     0.04960
H2860       H  0.38906004  0.37765436  0.03408063     0.08180
H2861       H  0.41187018  0.34905832  0.05469892     0.08180
H2862       H  0.35258218  0.44351913  0.17204260     0.08170
H2863       H  0.39282162  0.45732973  0.17113590     0.08170
H2864       H  0.38310603  0.42096960  0.18866297     0.04940
C2865       C  0.28269391  0.27023417  0.04489889    -0.20860
C2866       C  0.31309486  0.28293185  0.04228832    -0.07430
C2867       C  0.31637888  0.31349014  0.03120676     0.13440
C2868       C  0.28976605  0.33120941  0.02591871    -0.20920
C2869       C  0.25950238  0.31950772  0.03092831    -0.07430
C2870       C  0.25585066  0.28826186  0.03978035     0.13430
C2871       C  0.22414573  0.27435800  0.04574905    -0.24260
H2872       H  0.27967872  0.24660823  0.05301953     0.14720
H2873       H  0.29289509  0.35495638  0.01816126     0.14740
C2874       C  0.34757398  0.32857228  0.02642582    -0.24210
H2875       H  0.22581519  0.24991617  0.05383457     0.04960
H2876       H  0.21022086  0.27446289  0.02418190     0.08180
H2877       H  0.21171001  0.28801004  0.06394289     0.08180
H2878       H  0.36284502  0.31347735  0.01193125     0.08170
H2879       H  0.35826318  0.33269473  0.04939273     0.08170
H2880       H  0.34546119  0.35134867  0.01453655     0.04940
C2881       C  0.30177259  0.17219065  0.23672190    -0.20860
C2882       C  0.30859381  0.18437922  0.26605345    -0.07430
C2883       C  0.33344257  0.20595284  0.26909920     0.13440
C2884       C  0.34584204  0.21953478  0.24231898    -0.20920
C2885       C  0.33500898  0.21094161  0.21295027    -0.07430
C2886       C  0.31580956  0.18431031  0.21011006     0.13430
C2887       C  0.30944408  0.16813311  0.17972532    -0.24260
H2888       H  0.28451171  0.15396632  0.23427025     0.14720
H2889       H  0.36237762  0.23843425  0.24456187     0.14740
C2890       C  0.34671500  0.21542819  0.30011934    -0.24210
H2891       H  0.28468961  0.17157023  0.17310731     0.04960
H2892       H  0.31399360  0.14282827  0.18227221     0.08180
H2893       H  0.32493917  0.17618691  0.16079973     0.08180
H2894       H  0.35232185  0.19439901  0.31393733     0.08170
H2895       H  0.33010615  0.23050163  0.31307401     0.08170
H2896       H  0.36864498  0.22889852  0.29726513     0.04940
C2897       C  0.18975919  0.27289201  0.27402942    -0.20860
C2898       C  0.16194271  0.28256224  0.28824873    -0.07430
C2899       C  0.15452727  0.27235607  0.31855801     0.13440
C2900       C  0.17566170  0.25281289  0.33404959    -0.20920
C2901       C  0.20425393  0.24472153  0.32007267    -0.07430
C2902       C  0.21168940  0.25570357  0.29005268     0.13430
C2903       C  0.24308765  0.24971784  0.27481640    -0.24260
H2904       H  0.19581470  0.28152876  0.25111641     0.14720
H2905       H  0.16945493  0.24315269  0.35647221     0.14740
C2906       C  0.12453652  0.28131330  0.33455077    -0.24210
H2907       H  0.24583982  0.26284745  0.25277095     0.04960
H2908       H  0.26202946  0.25713841  0.29065112     0.08180
H2909       H  0.24596832  0.22478217  0.26901226     0.08180
H2910       H  0.10905671  0.29472340  0.31900971     0.08170
H2911       H  0.12959773  0.29541803  0.35555151     0.08170
H2912       H  0.11175777  0.26000909  0.34162502     0.04940
C2913       C  0.13334951  0.13042616  0.39559116    -0.20860
C2914       C  0.14648545  0.12394994  0.36623855    -0.07430
C2915       C  0.12603770  0.12357921  0.34041492     0.13440
C2916       C  0.09492280  0.13382902  0.34365121    -0.20920
C2917       C  0.08244125  0.14396548  0.37230553    -0.07430
C2918       C  0.10167044  0.14011095  0.39905266     0.13430
C2919       C  0.08985702  0.14770182  0.43123289    -0.24260
H2920       H  0.14852221  0.13045074  0.41561500     0.14720
H2921       H  0.08063544  0.13493163  0.32300198     0.14740
C2922       C  0.13677059  0.11347336  0.30849450    -0.24210
H2923       H  0.10777788  0.14308357  0.44916947     0.04960
H2924       H  0.06919895  0.13312705  0.43673121     0.08180
H2925       H  0.08349742  0.17266221  0.43285499     0.08180
H2926       H  0.16089631  0.10409980  0.30835825     0.08170
H2927       H  0.13560736  0.13345565  0.29225456     0.08170
H2928       H  0.12127893  0.09471721  0.29988513     0.04940
C2929       C  0.21390988  0.25861785  0.43658314    -0.20860
C2930       C  0.18177560  0.25398413  0.43295953    -0.07430
C2931       C  0.17094185  0.22407185  0.42393626     0.13440
C2932       C  0.19212320  0.19942682  0.42165843    -0.20920
C2933       C  0.22407551  0.20383214  0.42623768    -0.07430
C2934       C  0.23527821  0.23428925  0.43251158     0.13430
C2935       C  0.26959709  0.24193755  0.43419399    -0.24260
H2936       H  0.22248354  0.28143879  0.44290381     0.14720
H2937       H  0.18368512  0.17666112  0.41503991     0.14740
C2938       C  0.13728617  0.21744494  0.41623563    -0.24210
H2939       H  0.27365344  0.26596126  0.44276288     0.04960
H2940       H  0.28029099  0.24034148  0.41068148     0.08180
H2941       H  0.28163240  0.22566336  0.45003052     0.08180
H2942       H  0.12838645  0.23499783  0.39962603     0.08170
H2943       H  0.12278285  0.21720865  0.43770258     0.08170
H2944       H  0.13465910  0.19451790  0.40488971     0.04940
C2945       C  0.40320016  0.10432068  0.37050424    -0.20860
C2946       C  0.42152160  0.13117207  0.36475829    -0.07430
C2947       C  0.40827124  0.16037951  0.37351565     0.13440
C2948       C  0.37686037  0.16206307  0.38308004    -0.20920
C2949       C  0.35741543  0.13581140  0.38470078    -0.07430
C2950       C  0.37180662  0.10629732  0.38157997     0.13430
C2951       C  0.35481904  0.07714756  0.39103533    -0.24260
H2952       H  0.41328946  0.08164311  0.36596526     0.14720
H2953       H  0.36657502  0.18477037  0.38719705     0.14740
C2954       C  0.42594957  0.19065072  0.37140034    -0.24210
H2955       H  0.36914886  0.05605405  0.38651898     0.04960
H2956       H  0.33245614  0.07450886  0.37871281     0.08180
H2957       H  0.34963585  0.07823579  0.41632177     0.08180
H2958       H  0.43203050  0.19575910  0.34685415     0.08170
H2959       H  0.44731127  0.18942362  0.38579302     0.08170
H2960       H  0.41197075  0.21065790  0.38012992     0.04940
C2961       C  0.32061887  0.09809976  0.25823154    -0.20860
C2962       C  0.30697031  0.08352729  0.23275984    -0.07430
C2963       C  0.27525749  0.07543719  0.23453682     0.13440
C2964       C  0.25992697  0.07611363  0.26356743    -0.20920
C2965       C  0.27585594  0.08493341  0.29077082    -0.07430
C2966       C  0.30670727  0.09631184  0.28753105     0.13430
C2967       C  0.32528124  0.10700511  0.31456602    -0.24260
H2968       H  0.34482707  0.10531815  0.25635200     0.14720
H2969       H  0.23549934  0.06976757  0.26501061     0.14740
C2970       C  0.25799449  0.06619672  0.20570099    -0.24210
H2971       H  0.31225153  0.12596328  0.32572024     0.04960
H2972       H  0.34869976  0.11594692  0.30792236     0.08180
H2973       H  0.32853248  0.08716662  0.33035626     0.08180
H2974       H  0.26978124  0.04640665  0.19406453     0.08170
H2975       H  0.25768275  0.08611853  0.18934460     0.08170
H2976       H  0.23351621  0.05950861  0.21099988     0.04940
loop_ 
_geom_bond_atom_site_label_1 
_geom_bond_atom_site_label_2 
_geom_bond_distance 
_geom_bond_site_symmetry_2 
_ccdc_geom_bond_type 
Fe1          O17   2.117       .  S
Fe1           O7   2.177       .  S
Fe1          O14   2.187       .  S
Fe1           O6   2.095       .  S
Fe1          O12   1.940       .  S
Fe2           O5   2.059       .  S
Fe2           O9   2.032       .  S
Fe2          O13   2.024       .  S
Fe2          O18   2.011       .  S
Fe2          O12   1.925       .  S
Fe3          O21   2.051       .  S
Fe3           O8   2.084       .  S
Fe3          O15   2.026       .  S
Fe3           O4   2.024       .  S
Fe3          O12   1.928       .  S
O4           C11   1.248       .  A
O5           C19   1.276       .  A
O6           C11   1.272       .  A
O7           C10   1.294       .  A
O8           C20   1.274       .  A
O9           C22   1.250       .  A
C10          O15   1.271       .  A
C10        C2949   1.513       .  S
C11        C2933   1.477       .  S
O13          C16   1.266       .  A
O14          C16   1.298       .  A
C16        C2914   1.509       .  S
O17          C22   1.272       .  A
O18          C20   1.261       .  A
C19          O21   1.269       .  A
C19        C2882   1.469       .  S
C20        C2901   1.452       .  S
C22        C2965   1.490       .  S
Fe23         O39   2.092       .  S
Fe23         O29   2.199       .  S
Fe23         O36   2.180       .  S
Fe23         O28   2.104       .  S
Fe23         O34   1.935       .  S
Fe24         O27   2.072       .  S
Fe24         O31   2.033       .  S
Fe24         O35   2.031       .  S
Fe24         O40   2.065       .  S
Fe24         O34   1.932       .  S
Fe25         O43   2.032       .  S
Fe25         O30   2.053       .  S
Fe25         O37   2.032       .  S
Fe25         O26   2.046       .  S
Fe25         O34   1.930       .  S
O26          C33   1.255       .  A
O27          C41   1.272       .  A
O28          C33   1.273       .  A
O29          C32   1.298       .  A
O30          C42   1.274       .  A
O31          C44   1.253       .  A
C32          O37   1.268       .  A
C32        C2853   1.525       .  S
C33        C2837   1.485       .  S
O35          C38   1.271       .  A
O36          C38   1.295       .  A
C38        C2818   1.517       .  S
O39          C44   1.274       .  A
O40          C42   1.271       .  A
C41          O43   1.265       .  A
C41        C2802   1.460       .  S
C42        C2885   1.471       .  S
C44        C2866   1.486       .  S
Fe45         O61   2.084       .  S
Fe45         O51   2.166       .  S
Fe45         O58   2.187       .  S
Fe45         O50   2.066       .  S
Fe45         O56   1.922       .  S
Fe46         O49   2.075       .  S
Fe46         O53   2.034       .  S
Fe46         O57   2.036       .  S
Fe46         O62   2.028       .  S
Fe46         O56   1.942       .  S
Fe47         O65   2.040       .  S
Fe47         O52   2.092       .  S
Fe47         O59   2.033       .  S
Fe47         O48   2.030       .  S
Fe47         O56   1.931       .  S
O48          C55   1.259       .  A
O49          C63   1.278       .  A
O50          C55   1.270       .  A
O51          C54   1.294       .  A
O52          C64   1.271       .  A
O53          C66   1.245       .  A
C54          O59   1.266       .  A
C54        C2770   1.502       .  S
C55        C2757   1.479       .  S
O57          C60   1.271       .  A
O58          C60   1.300       .  A
C60        C2741   1.512       .  S
O61          C66   1.268       .  A
O62          C64   1.257       .  A
C63          O65   1.273       .  A
C63        C2898   1.452       .  S
C64        C2805   1.483       .  S
C66        C2786   1.477       .  S
Fe67         O83   2.093       .  S
Fe67         O73   2.126       .  S
Fe67         O80   2.092       .  S
Fe67         O72   2.108       .  S
Fe67         O78   1.938       .  S
Fe68         O71   2.022       .  S
Fe68         O75   2.026       .  S
Fe68         O79   2.033       .  S
Fe68         O84   2.020       .  S
Fe68         O78   1.946       .  S
Fe69         O87   2.085       .  S
Fe69         O74   2.075       .  S
Fe69         O81   2.066       .  S
Fe69         O70   2.090       .  S
Fe69         O78   1.972       .  S
O70          C77   1.273       .  A
O71          C85   1.259       .  A
O72          C77   1.276       .  A
O73          C76   1.282       .  A
O74          C86   1.271       .  A
O75          C88   1.254       .  A
C76          O81   1.271       .  A
C76        C2706   1.516       .  S
C77        C2946   1.524       .  S
O79          C82   1.266       .  A
O80          C82   1.279       .  A
C82         C126   1.450       .  S
O83          C88   1.277       .  A
O84          C86   1.262       .  A
C85          O87   1.269       .  A
C85        C2722   1.459       .  S
C86        C2834   1.460       .  S
C88         C154   1.463       .  S
Fe89        O105   2.109       .  S
Fe89         O95   2.092       .  S
Fe89        O102   2.083       .  S
Fe89         O94   2.105       .  S
Fe89        O100   1.950       .  S
Fe90         O93   2.040       .  S
Fe90         O97   2.014       .  S
Fe90        O101   2.029       .  S
Fe90        O106   1.964       .  S
Fe90        O100   1.936       .  S
Fe91        O109   2.075       .  S
Fe91         O96   2.096       .  S
Fe91        O103   2.082       .  S
Fe91         O92   2.098       .  S
Fe91        O100   1.981       .  S
O92          C99   1.278       .  A
O93         C107   1.274       .  A
O94          C99   1.280       .  A
O95          C98   1.271       .  A
O96         C108   1.273       .  A
O97         C110   1.247       .  A
C98         O103   1.273       .  A
C98        C2690   1.520       .  S
C99        C2658   1.519       .  S
O101        C104   1.265       .  A
O102        C104   1.276       .  A
C104        C148   1.442       .  S
O105        C110   1.276       .  A
O106        C108   1.247       .  A
C107        O109   1.271       .  A
C107       C2674   1.480       .  S
C108       C2645   1.485       .  S
C110        C132   1.468       .  S
Fe111       O127   2.089   1_545  S
Fe111       O117   2.148   1_545  S
Fe111       O124   2.097       .  S
Fe111       O116   2.097       .  S
Fe111       O122   1.932       .  S
Fe112       O115   2.023   1_545  S
Fe112       O119   2.035   1_545  S
Fe112       O123   2.030       .  S
Fe112       O128   2.031       .  S
Fe112       O122   1.946       .  S
Fe113       O131   2.110   1_545  S
Fe113       O118   2.070       .  S
Fe113       O125   2.075   1_545  S
Fe113       O114   2.094       .  S
Fe113       O122   1.980       .  S
O114        C121   1.272       .  A
O115        C129   1.257       .  A
O116        C121   1.272       .  A
O117        C120   1.288       .  A
O118        C130   1.270       .  A
O119        C132   1.255       .  A
C120        O125   1.278       .  A
C120       C2613   1.528       .  S
C121       C2821   1.524       .  S
O123        C126   1.266       .  A
O124        C126   1.281       .  A
O127        C132   1.278       .  A
O128        C130   1.267       .  A
C129        O131   1.271       .  A
C129       C2626   1.487       .  S
C130       C2962   1.459       .  S
Fe133       O149   2.086       .  S
Fe133       O139   2.113       .  S
Fe133       O146   2.075   1_545  S
Fe133       O138   2.088   1_545  S
Fe133       O144   1.939       .  S
Fe134       O137   2.027       .  S
Fe134       O141   2.031       .  S
Fe134       O145   2.038   1_545  S
Fe134       O150   2.027   1_545  S
Fe134       O144   1.950       .  S
Fe135       O153   2.101       .  S
Fe135       O140   2.059   1_545  S
Fe135       O147   2.070       .  S
Fe135       O136   2.104   1_545  S
Fe135       O144   1.980       .  S
O136        C143   1.276       .  A
O137        C151   1.260       .  A
O138        C143   1.274       .  A
O139        C142   1.279       .  A
O140        C152   1.267       .  A
O141        C154   1.254       .  A
C142        O147   1.271       .  A
C142       C2594   1.507       .  S
C143       C2549   1.525       .  S
O145        C148   1.268       .  A
O146        C148   1.276       .  A
O149        C154   1.275       .  A
O150        C152   1.259       .  A
C151        O153   1.274       .  A
C151       C2581   1.474       .  S
C152       C2565   1.447       .  S
Fe155       O171   2.140       .  S
Fe155       O161   2.130       .  S
Fe155       O168   2.129       .  S
Fe155       O160   2.145       .  S
Fe155       O166   1.923       .  S
Fe156       O159   2.025       .  S
Fe156       O163   2.063       .  S
Fe156       O167   1.981       .  S
Fe156       O172   2.069       .  S
Fe156       O166   1.936       .  S
Fe157       O175   2.071       .  S
Fe157       O162   2.033       .  S
Fe157       O169   1.993       .  S
Fe157       O158   2.051       .  S
Fe157       O166   1.932       .  S
O158        C165   1.258       .  A
O159        C173   1.259       .  A
O160        C165   1.282       .  A
O161        C164   1.285       .  A
O162        C174   1.263       .  A
O163        C176   1.263       .  A
C164        O169   1.264       .  A
C164       C2533   1.471       .  S
C165       C2693   1.522       .  S
O167        C170   1.260       .  A
O168        C170   1.283       .  A
C170       C2629   1.477       .  S
O171        C176   1.285       .  A
O172        C174   1.274       .  A
C173        O175   1.271       .  A
C173       C2498   1.469       .  S
C174       C2482   1.456       .  S
C176       C2514   1.509       .  S
Fe177       O193   2.204       .  S
Fe177       O183   2.100       .  S
Fe177       O190   2.090       .  S
Fe177       O182   2.198       .  S
Fe177       O188   1.924       .  S
Fe178       O181   2.052       .  S
Fe178       O185   2.027       .  S
Fe178       O189   2.043       .  S
Fe178       O194   2.064       .  S
Fe178       O188   1.926       .  S
Fe179       O197   2.051       .  S
Fe179       O184   2.037       .  S
Fe179       O191   2.038       .  S
Fe179       O180   2.026       .  S
Fe179       O188   1.952       .  S
O180        C187   1.264       .  A
O181        C195   1.269       .  A
O182        C187   1.301       .  A
O183        C186   1.274       .  A
O184        C196   1.265       .  A
O185        C198   1.269       .  A
C186        O191   1.254       .  A
C186       C2677   1.489       .  S
C187       C2450   1.516       .  S
O189        C192   1.256       .  A
O190        C192   1.271       .  A
C192       C2466   1.483       .  S
O193        C198   1.301       .  A
O194        C196   1.271       .  A
C195        O197   1.269       .  A
C195       C2485   1.453       .  S
C196       C2434   1.466       .  S
C198       C2610   1.523       .  S
Fe199       O215   2.148       .  S
Fe199       O205   2.117       .  S
Fe199       O212   2.138       .  S
Fe199       O204   2.130       .  S
Fe199       O210   1.915       .  S
Fe200       O203   2.012       .  S
Fe200       O207   2.049       .  S
Fe200       O211   1.980       .  S
Fe200       O216   2.083       .  S
Fe200       O210   1.940       .  S
Fe201       O219   2.101       .  S
Fe201       O206   2.008       .  S
Fe201       O213   1.978       .  S
Fe201       O202   2.056       .  S
Fe201       O210   1.927       .  S
O202        C209   1.265       .  A
O203        C217   1.262       .  A
O204        C209   1.283       .  A
O205        C208   1.283       .  A
O206        C218   1.251       .  A
O207        C220   1.253       .  A
C208        O213   1.258       .  A
C208       C2418   1.471       .  S
C209       C2370   1.498       .  S
O211        C214   1.266       .  A
O212        C214   1.291       .  A
C214       C2389   1.471       .  S
O215        C220   1.278       .  A
O216        C218   1.266       .  A
C217        O219   1.279       .  A
C217       C2437   1.460       .  S
C218       C2501   1.440       .  S
C220       C2405   1.522       .  S
Fe221       O237   2.090       .  S
Fe221       O227   2.121       .  S
Fe221       O234   2.076       .  S
Fe221       O226   2.106       .  S
Fe221       O232   1.945       .  S
Fe222       O225   2.024       .  S
Fe222       O229   2.000       .  S
Fe222       O233   2.028       .  S
Fe222       O238   2.005       .  S
Fe222       O232   1.947       .  S
Fe223       O241   2.087       .  S
Fe223       O228   2.082       .  S
Fe223       O235   2.093       .  S
Fe223       O224   2.101       .  S
Fe223       O232   1.973       .  S
O224        C231   1.274       .  A
O225        C239   1.258       .  A
O226        C231   1.273       .  A
O227        C230   1.281       .  A
O228        C240   1.276       .  A
O229        C242   1.252       .  A
C230        O235   1.279       .  A
C230       C2338   1.530       .  S
C231       C2306   1.533       .  S
O233        C236   1.264       .  A
O234        C236   1.274       .  A
C236        C302   1.443       .  S
O237        C242   1.275       .  A
O238        C240   1.259       .  A
C239        O241   1.267       .  A
C239       C2354   1.484       .  S
C240       C2322   1.453       .  S
C242        C286   1.448       .  S
Fe243       O259   2.097       .  S
Fe243       O249   2.113       .  S
Fe243       O256   2.090       .  S
Fe243       O248   2.116       .  S
Fe243       O254   1.954       .  S
Fe244       O247   2.012       .  S
Fe244       O251   2.028       .  S
Fe244       O255   1.983       .  S
Fe244       O260   2.020       .  S
Fe244       O254   1.944       .  S
Fe245       O263   2.087       .  S
Fe245       O250   2.086       .  S
Fe245       O257   2.098       .  S
Fe245       O246   2.090       .  S
Fe245       O254   2.025       .  S
O246        C253   1.275       .  A
O247        C261   1.252       .  A
O248        C253   1.280       .  A
O249        C252   1.278       .  A
O250        C262   1.264       .  A
O251        C264   1.262       .  A
C252        O257   1.275       .  A
C252       C2453   1.527       .  S
C253       C2850   1.531       .  S
O255        C258   1.248       .  A
O256        C258   1.273       .  A
C258        C280   1.442       .  S
O259        C264   1.283       .  A
O260        C262   1.248       .  A
C261        O263   1.272       .  A
C261       C2421   1.488       .  S
C262       C2754   1.476       .  S
C264        C308   1.459       .  S
Fe265       O281   2.084       .  S
Fe265       O271   2.101       .  S
Fe265       O278   2.084   1_556  S
Fe265       O270   2.094   1_556  S
Fe265       O276   1.923       .  S
Fe266       O269   2.009       .  S
Fe266       O273   2.017       .  S
Fe266       O277   2.011   1_556  S
Fe266       O282   2.020   1_556  S
Fe266       O276   1.941       .  S
Fe267       O285   2.100       .  S
Fe267       O272   2.102   1_556  S
Fe267       O279   2.105       .  S
Fe267       O268   2.098   1_556  S
Fe267       O276   2.064       .  S
O268        C275   1.276       .  A
O269        C283   1.240       .  A
O270        C275   1.275       .  A
O271        C274   1.278       .  A
O272        C284   1.263       .  A
O273        C286   1.259       .  A
C274        O279   1.280       .  A
C274       C2290   1.522       .  S
C275       C2738   1.501       .  S
O277        C280   1.256       .  A
O278        C280   1.278       .  A
O281        C286   1.279       .  A
O282        C284   1.242       .  A
C283        O285   1.261       .  A
C283       C2274   1.482       .  S
C284       C2869   1.478       .  S
Fe287       O303   2.098   1_556  S
Fe287       O293   2.112   1_556  S
Fe287       O300   2.071       .  S
Fe287       O292   2.110       .  S
Fe287       O298   1.948       .  S
Fe288       O291   2.027   1_556  S
Fe288       O295   2.010   1_556  S
Fe288       O299   2.033       .  S
Fe288       O304   2.000       .  S
Fe288       O298   1.956       .  S
Fe289       O307   2.075   1_556  S
Fe289       O294   2.082       .  S
Fe289       O301   2.089   1_556  S
Fe289       O290   2.088       .  S
Fe289       O298   1.982       .  S
O290        C297   1.270       .  A
O291        C305   1.261       .  A
O292        C297   1.274       .  A
O293        C296   1.280       .  A
O294        C306   1.275       .  A
O295        C308   1.253       .  A
C296        O301   1.278       .  A
C296       C2402   1.516       .  S
C297       C2261   1.529       .  S
O299        C302   1.264       .  A
O300        C302   1.273       .  A
O303        C308   1.276       .  A
O304        C306   1.258       .  A
C305        O307   1.266       .  A
C305       C2469   1.475       .  S
C306       C2242   1.452       .  S
Fe309       O325   2.161       .  S
Fe309       O315   2.107       .  S
Fe309       O322   2.127       .  S
Fe309       O314   2.150       .  S
Fe309       O320   1.912       .  S
Fe310       O313   2.002       .  S
Fe310       O317   2.037       .  S
Fe310       O321   1.952       .  S
Fe310       O326   2.092       .  S
Fe310       O320   1.939       .  S
Fe311       O329   2.120       .  S
Fe311       O316   2.009       .  S
Fe311       O323   1.990       .  S
Fe311       O312   2.065       .  S
Fe311       O320   1.933       .  S
O312        C319   1.269       .  A
O313        C327   1.254       .  A
O314        C319   1.285       .  A
O315        C318   1.283       .  A
O316        C328   1.256       .  A
O317        C330   1.250       .  A
C318        O323   1.261       .  A
C318       C2194   1.459       .  S
C319       C2213   1.528       .  S
O321        C324   1.259       .  A
O322        C324   1.289       .  A
C324       C2226   1.442       .  S
O325        C330   1.278       .  A
O326        C328   1.271       .  A
C327        O329   1.283       .  A
C327       C2146   1.462       .  S
C328       C2162   1.464       .  S
C330       C2178   1.524       .  S
Fe331       O347   2.143       .  S
Fe331       O337   2.129       .  S
Fe331       O344   2.134       .  S
Fe331       O336   2.145       .  S
Fe331       O342   1.924       .  S
Fe332       O335   2.021       .  S
Fe332       O339   2.061       .  S
Fe332       O343   1.982       .  S
Fe332       O348   2.082       .  S
Fe332       O342   1.940       .  S
Fe333       O351   2.079       .  S
Fe333       O338   2.022       .  S
Fe333       O345   1.997       .  S
Fe333       O334   2.052       .  S
Fe333       O342   1.937       .  S
O334        C341   1.262       .  A
O335        C349   1.263       .  A
O336        C341   1.283       .  A
O337        C340   1.287       .  A
O338        C350   1.258       .  A
O339        C352   1.262       .  A
C340        O345   1.261       .  A
C340       C2133   1.477       .  S
C341       C2293   1.513       .  S
O343        C346   1.266       .  A
O344        C346   1.288       .  A
C346       C2357   1.474       .  S
O347        C352   1.278       .  A
O348        C350   1.269       .  A
C349        O351   1.274       .  A
C349       C2165   1.453       .  S
C350       C2098   1.470       .  S
C352       C2114   1.523       .  S
Fe353       O369   2.146       .  S
Fe353       O359   2.132       .  S
Fe353       O366   2.122       .  S
Fe353       O358   2.153       .  S
Fe353       O364   1.918       .  S
Fe354       O357   2.008       .  S
Fe354       O361   2.075       .  S
Fe354       O365   1.988       .  S
Fe354       O370   2.091       .  S
Fe354       O364   1.913       .  S
Fe355       O373   2.092       .  S
Fe355       O360   2.014       .  S
Fe355       O367   1.980       .  S
Fe355       O356   2.059       .  S
Fe355       O364   1.928       .  S
O356        C363   1.261       .  A
O357        C371   1.259       .  A
O358        C363   1.285       .  A
O359        C362   1.285       .  A
O360        C372   1.255       .  A
O361        C374   1.267       .  A
C362        O367   1.260       .  A
C362       C2277   1.464       .  S
C363       C2066   1.526       .  S
O365        C368   1.262       .  A
O366        C368   1.280       .  A
C368       C2082   1.465       .  S
O369        C374   1.286       .  A
O370        C372   1.277       .  A
C371        O373   1.275       .  A
C371       C2101   1.458       .  S
C372       C2149   1.470       .  S
C374       C2341   1.535       .  S
Fe375       O391   2.044       .  S
Fe375       O381   2.120       .  S
Fe375       O388   2.111       .  S
Fe375       O380   2.077       .  S
Fe375       O386   1.930       .  S
Fe376       O379   2.019       .  S
Fe376       O383   2.009       .  S
Fe376       O387   2.050       .  S
Fe376       O392   2.022       .  S
Fe376       O386   1.947       .  S
Fe377       O395   2.111       .  S
Fe377       O382   2.047       .  S
Fe377       O389   2.082       .  S
Fe377       O378   2.128       .  S
Fe377       O386   1.964       .  S
O378        C385   1.282       .  A
O379        C393   1.262       .  A
O380        C385   1.273       .  A
O381        C384   1.278       .  A
O382        C394   1.265       .  A
O383        C396   1.250       .  A
C384        O389   1.272       .  A
C384       C2034   1.526       .  S
C385       C2018   1.522       .  S
O387        C390   1.271       .  A
O388        C390   1.283       .  A
C390        C456   1.468       .  S
O391        C396   1.262       .  A
O392        C394   1.260       .  A
C393        O395   1.279       .  A
C393       C2050   1.479       .  S
C394       C2002   1.439       .  S
C396        C440   1.423       .  S
Fe397       O413   2.095       .  S
Fe397       O403   2.118       .  S
Fe397       O410   2.109       .  S
Fe397       O402   2.114       .  S
Fe397       O408   1.927       .  S
Fe398       O401   2.012       .  S
Fe398       O405   2.036       .  S
Fe398       O409   2.004       .  S
Fe398       O414   2.021       .  S
Fe398       O408   1.940       .  S
Fe399       O417   2.052       .  S
Fe399       O404   2.103       .  S
Fe399       O411   2.112       .  S
Fe399       O400   2.070       .  S
Fe399       O408   1.967       .  S
O400        C407   1.268       .  A
O401        C415   1.257       .  A
O402        C407   1.277       .  A
O403        C406   1.282       .  A
O404        C416   1.278       .  A
O405        C418   1.271       .  A
C406        O411   1.283       .  A
C406       C2117   1.528       .  S
C407       C2773   1.503       .  S
O409        C412   1.245       .  A
O410        C412   1.279       .  A
C412        C434   1.459       .  S
O413        C418   1.279       .  A
O414        C416   1.255       .  A
C415        O417   1.264       .  A
C415       C2229   1.442       .  S
C416       C2930   1.481       .  S
C418        C462   1.454       .  S
Fe419       O435   2.060   1_455  S
Fe419       O425   2.087   1_455  S
Fe419       O432   2.087       .  S
Fe419       O424   2.112       .  S
Fe419       O430   1.939       .  S
Fe420       O423   1.981   1_455  S
Fe420       O427   1.999   1_455  S
Fe420       O431   2.011       .  S
Fe420       O436   2.012       .  S
Fe420       O430   1.945       .  S
Fe421       O439   2.081   1_455  S
Fe421       O426   2.112       .  S
Fe421       O433   2.111   1_455  S
Fe421       O422   2.097       .  S
Fe421       O430   1.992       .  S
O422        C429   1.279       .  A
O423        C437   1.247       .  A
O424        C429   1.279       .  A
O425        C428   1.271       .  A
O426        C438   1.277       .  A
O427        C440   1.260       .  A
C428        O433   1.279       .  A
C428       C1989   1.529       .  S
C429       C2917   1.527       .  S
O431        C434   1.249       .  A
O432        C434   1.278       .  A
O435        C440   1.274       .  A
O436        C438   1.255       .  A
C437        O439   1.267       .  A
C437       C1973   1.453       .  S
C438       C2789   1.479       .  S
Fe441       O457   2.090       .  S
Fe441       O447   2.110       .  S
Fe441       O454   2.112   1_455  S
Fe441       O446   2.114   1_455  S
Fe441       O452   1.957   1_455  S
Fe442       O445   2.000   1_655  S
Fe442       O449   2.045   1_655  S
Fe442       O453   2.008       .  S
Fe442       O458   2.028       .  S
Fe442       O452   1.946       .  S
Fe443       O461   2.100       .  S
Fe443       O448   2.091   1_455  S
Fe443       O455   2.096       .  S
Fe443       O444   2.093   1_455  S
Fe443       O452   1.999   1_455  S
O444        C451   1.279       .  A
O445        C459   1.257       .  A
O446        C451   1.282       .  A
O447        C450   1.274       .  A
O448        C460   1.267       .  A
O449        C462   1.269       .  A
C450        O455   1.272       .  A
C450       C2210   1.532       .  S
C451       C1941   1.519       .  S
O453        C456   1.248       .  A
O454        C456   1.273       .  A
O457        C462   1.280       .  A
O458        C460   1.259       .  A
C459        O461   1.275       .  A
C459       C2130   1.478       .  S
C460       C1957   1.481       .  S
Fe463       O479   2.174       .  S
Fe463       O469   2.090       .  S
Fe463       O476   2.102       .  S
Fe463       O468   2.158       .  S
Fe463       O474   1.930       .  S
Fe464       O467   2.026       .  S
Fe464       O471   2.029       .  S
Fe464       O475   2.024       .  S
Fe464       O480   2.069       .  S
Fe464       O474   1.931       .  S
Fe465       O483   2.100       .  S
Fe465       O470   2.032       .  S
Fe465       O477   2.037       .  S
Fe465       O466   2.044       .  S
Fe465       O474   1.919       .  S
O466        C473   1.271       .  A
O467        C481   1.266       .  A
O468        C473   1.290       .  A
O469        C472   1.273       .  A
O470        C482   1.263       .  A
O471        C484   1.268       .  A
C472        O477   1.254       .  A
C472       C2725   1.474       .  S
C473       C1906   1.505       .  S
O475        C478   1.248       .  A
O476        C478   1.269       .  A
C478       C1922   1.483       .  S
O479        C484   1.296       .  A
O480        C482   1.273       .  A
C481        O483   1.281       .  A
C481       C1890   1.475       .  S
C482       C1874   1.455       .  S
C484       C2597   1.501       .  S
Fe485       O501   2.181       .  S
Fe485       O491   2.079       .  S
Fe485       O498   2.092       .  S
Fe485       O490   2.180       .  S
Fe485       O496   1.936       .  S
Fe486       O489   2.032       .  S
Fe486       O493   2.037       .  S
Fe486       O497   2.046       .  S
Fe486       O502   2.074       .  S
Fe486       O496   1.924       .  S
Fe487       O505   2.059       .  S
Fe487       O492   2.047       .  S
Fe487       O499   2.044       .  S
Fe487       O488   2.025       .  S
Fe487       O496   1.928       .  S
O488        C495   1.266       .  A
O489        C503   1.264       .  A
O490        C495   1.296       .  A
O491        C494   1.270       .  A
O492        C504   1.268       .  A
O493        C506   1.267       .  A
C494        O499   1.257       .  A
C494       C2053   1.472       .  S
C495       C2709   1.505       .  S
O497        C500   1.254       .  A
O498        C500   1.271       .  A
C500       C2578   1.481       .  S
O501        C506   1.296       .  A
O502        C504   1.274       .  A
C503        O505   1.270       .  A
C503       C1858   1.463       .  S
C504       C1893   1.456       .  S
C506       C1986   1.509       .  S
Fe507       O523   2.138       .  S
Fe507       O513   2.126       .  S
Fe507       O520   2.110       .  S
Fe507       O512   2.143       .  S
Fe507       O518   1.915       .  S
Fe508       O511   1.990       .  S
Fe508       O515   2.067       .  S
Fe508       O519   1.977       .  S
Fe508       O524   2.119       .  S
Fe508       O518   1.932       .  S
Fe509       O527   2.111       .  S
Fe509       O514   1.982       .  S
Fe509       O521   1.956       .  S
Fe509       O510   2.061       .  S
Fe509       O518   1.952       .  S
O510        C517   1.261       .  A
O511        C525   1.252       .  A
O512        C517   1.278       .  A
O513        C516   1.287       .  A
O514        C526   1.247       .  A
O515        C528   1.265       .  A
C516        O521   1.257       .  A
C516       C1970   1.449       .  S
C517       C1829   1.510       .  S
O519        C522   1.261       .  A
O520        C522   1.283       .  A
C522       C1842   1.452       .  S
O523        C528   1.282       .  A
O524        C526   1.279       .  A
C525        O527   1.277       .  A
C525       C1861   1.456       .  S
C526       C1877   1.455       .  S
C528       C2037   1.524       .  S
Fe529       O545   2.073       .  S
Fe529       O535   2.171       .  S
Fe529       O542   2.175       .  S
Fe529       O534   2.099       .  S
Fe529       O540   1.939       .  S
Fe530       O533   2.084       .  S
Fe530       O537   2.039       .  S
Fe530       O541   2.043       .  S
Fe530       O546   2.043       .  S
Fe530       O540   1.925       .  S
Fe531       O549   2.025       .  S
Fe531       O536   2.089       .  S
Fe531       O543   2.047       .  S
Fe531       O532   2.031       .  S
Fe531       O540   1.946       .  S
O532        C539   1.247       .  A
O533        C547   1.272       .  A
O534        C539   1.269       .  A
O535        C538   1.296       .  A
O536        C548   1.281       .  A
O537        C550   1.257       .  A
C538        O543   1.273       .  A
C538       C2661   1.510       .  S
C539       C1810   1.484       .  S
O541        C544   1.269       .  A
O542        C544   1.294       .  A
C544       C1794   1.516       .  S
O545        C550   1.270       .  A
O546        C548   1.270       .  A
C547        O549   1.258       .  A
C547       C1762   1.456       .  S
C548       C1778   1.470       .  S
C550       C2562   1.454       .  S
Fe551       O567   2.070       .  S
Fe551       O557   2.193       .  S
Fe551       O564   2.179       .  S
Fe551       O556   2.059       .  S
Fe551       O562   1.914       .  S
Fe552       O555   2.113       .  S
Fe552       O559   2.033       .  S
Fe552       O563   2.064       .  S
Fe552       O568   2.038       .  S
Fe552       O562   1.929       .  S
Fe553       O571   2.042       .  S
Fe553       O558   2.054       .  S
Fe553       O565   2.025       .  S
Fe553       O554   2.034       .  S
Fe553       O562   1.930       .  S
O554        C561   1.250       .  A
O555        C569   1.279       .  A
O556        C561   1.264       .  A
O557        C560   1.301       .  A
O558        C570   1.271       .  A
O559        C572   1.257       .  A
C560        O565   1.270       .  A
C560       C1698   1.509       .  S
C561       C1749   1.470       .  S
O563        C566   1.272       .  A
O564        C566   1.298       .  A
C566       C1730   1.521       .  S
O567        C572   1.270       .  A
O568        C570   1.268       .  A
C569        O571   1.258       .  A
C569       C1781   1.496       .  S
C570       C1682   1.449       .  S
C572       C1714   1.476       .  S
Fe573       O589   2.086       .  S
Fe573       O579   2.160       .  S
Fe573       O586   2.169       .  S
Fe573       O578   2.086       .  S
Fe573       O584   1.930       .  S
Fe574       O577   2.072       .  S
Fe574       O581   2.036       .  S
Fe574       O585   2.042       .  S
Fe574       O590   2.039       .  S
Fe574       O584   1.934       .  S
Fe575       O593   2.022       .  S
Fe575       O580   2.065       .  S
Fe575       O587   2.045       .  S
Fe575       O576   2.037       .  S
Fe575       O584   1.938       .  S
O576        C583   1.251       .  A
O577        C591   1.273       .  A
O578        C583   1.274       .  A
O579        C582   1.291       .  A
O580        C592   1.272       .  A
O581        C594   1.256       .  A
C582        O587   1.270       .  A
C582       C1653   1.497       .  S
C583       C2642   1.471       .  S
O585        C588   1.269       .  A
O586        C588   1.294       .  A
C588       C2546   1.503       .  S
O589        C594   1.272       .  A
O590        C592   1.270       .  A
C591        O593   1.253       .  A
C591       C1685   1.467       .  S
C592       C1765   1.447       .  S
C594       C1666   1.476       .  S
Fe595       O611   2.087       .  S
Fe595       O601   2.176       .  S
Fe595       O608   2.177       .  S
Fe595       O600   2.085       .  S
Fe595       O606   1.939       .  S
Fe596       O599   2.074       .  S
Fe596       O603   2.035       .  S
Fe596       O607   2.048       .  S
Fe596       O612   2.036       .  S
Fe596       O606   1.926       .  S
Fe597       O615   2.039       .  S
Fe597       O602   2.078       .  S
Fe597       O609   2.047       .  S
Fe597       O598   2.036       .  S
Fe597       O606   1.927       .  S
O598        C605   1.252       .  A
O599        C613   1.276       .  A
O600        C605   1.268       .  A
O601        C604   1.296       .  A
O602        C614   1.276       .  A
O603        C616   1.252       .  A
C604        O609   1.272       .  A
C604       C1618   1.516       .  S
C605       C2325   1.468       .  S
O607        C610   1.273       .  A
O608        C610   1.297       .  A
C610       C2258   1.513       .  S
O611        C616   1.268       .  A
O612        C614   1.267       .  A
C613        O615   1.261       .  A
C613       C1586   1.472       .  S
C614       C1605   1.472       .  S
C616       C1634   1.473       .  S
Fe617       O633   2.085       .  S
Fe617       O623   2.191       .  S
Fe617       O630   2.183       .  S
Fe617       O622   2.087       .  S
Fe617       O628   1.939       .  S
Fe618       O621   2.098       .  S
Fe618       O625   2.032       .  S
Fe618       O629   2.028       .  S
Fe618       O634   2.019       .  S
Fe618       O628   1.939       .  S
Fe619       O637   2.090       .  S
Fe619       O624   2.104       .  S
Fe619       O631   2.042       .  S
Fe619       O620   2.025       .  S
Fe619       O628   1.949       .  S
O620        C627   1.251       .  A
O621        C635   1.277       .  A
O622        C627   1.266       .  A
O623        C626   1.301       .  A
O624        C636   1.282       .  A
O625        C638   1.250       .  A
C626        O631   1.274       .  A
C626       C2309   1.519       .  S
C627       C1573   1.483       .  S
O629        C632   1.267       .  A
O630        C632   1.299       .  A
C632       C1554   1.509       .  S
O633        C638   1.266       .  A
O634        C636   1.257       .  A
C635        O637   1.288       .  A
C635       C1602   1.473       .  S
C636       C1538   1.440       .  S
C638       C2245   1.473       .  S
Fe639       O655   2.083       .  S
Fe639       O645   2.202       .  S
Fe639       O652   2.180       .  S
Fe639       O644   2.125       .  S
Fe639       O650   1.941       .  S
Fe640       O643   2.048       .  S
Fe640       O647   2.032       .  S
Fe640       O651   2.007       .  S
Fe640       O656   2.040       .  S
Fe640       O650   1.929       .  S
Fe641       O659   2.021       .  S
Fe641       O646   2.051       .  S
Fe641       O653   2.028       .  S
Fe641       O642   2.035       .  S
Fe641       O650   1.933       .  S
O642        C649   1.249       .  A
O643        C657   1.268       .  A
O644        C649   1.272       .  A
O645        C648   1.300       .  A
O646        C658   1.276       .  A
O647        C660   1.255       .  A
C648        O653   1.271       .  A
C648       C1477   1.537       .  S
C649       C1522   1.492       .  S
O651        C654   1.264       .  A
O652        C654   1.293       .  A
C654       C1506   1.504       .  S
O655        C660   1.275       .  A
O656        C658   1.268       .  A
C657        O659   1.259       .  A
C657       C1541   1.439       .  S
C658       C1589   1.461       .  S
C660       C1490   1.479       .  S
Fe661       O677   2.108   1_545  S
Fe661       O667   2.128   1_545  S
Fe661       O674   2.102       .  S
Fe661       O666   2.127       .  S
Fe661       O672   1.951       .  S
Fe662       O665   2.000       .  S
Fe662       O669   2.062   1_545  S
Fe662       O673   1.972       .  S
Fe662       O678   2.024       .  S
Fe662       O672   1.939       .  S
Fe663       O681   2.097   1_545  S
Fe663       O668   2.080       .  S
Fe663       O675   2.069   1_545  S
Fe663       O664   2.070       .  S
Fe663       O672   2.005       .  S
O664        C671   1.274       .  A
O665        C679   1.258   1_545  A
O666        C671   1.285       .  A
O667        C670   1.278       .  A
O668        C680   1.256       .  A
O669        C682   1.272       .  A
C670        O675   1.267       .  A
C670       C1445   1.531       .  S
C671       C1426   1.519       .  S
O673        C676   1.243       .  A
O674        C676   1.272       .  A
C676        C742   1.445       .  S
O677        C682   1.286       .  A
O678        C680   1.252       .  A
C679        O681   1.278       .  A
C679       C1458   1.490       .  S
C680       C1413   1.480       .  S
C682        C704   1.471       .  S
Fe683       O699   2.138       .  S
Fe683       O689   2.096       .  S
Fe683       O696   2.072       .  S
Fe683       O688   2.151       .  S
Fe683       O694   1.935       .  S
Fe684       O687   2.041       .  S
Fe684       O691   2.021       .  S
Fe684       O695   2.062       .  S
Fe684       O700   2.017       .  S
Fe684       O694   1.928       .  S
Fe685       O703   2.041       .  S
Fe685       O690   2.129       .  S
Fe685       O697   2.115       .  S
Fe685       O686   2.060       .  S
Fe685       O694   1.969       .  S
O686        C693   1.269       .  A
O687        C701   1.269       .  A
O688        C693   1.285       .  A
O689        C692   1.276       .  A
O690        C702   1.280       .  A
O691        C704   1.260       .  A
C692        O697   1.281       .  A
C692       C1397   1.529       .  S
C693       C1474   1.527       .  S
O695        C698   1.266       .  A
O696        C698   1.271       .  A
C698        C720   1.461       .  S
O699        C704   1.285       .  A
O700        C702   1.257       .  A
C701        O703   1.261       .  A
C701       C1378   1.457       .  S
C702       C1570   1.476       .  S
Fe705       O721   2.078       .  S
Fe705       O711   2.109       .  S
Fe705       O718   2.096   1_545  S
Fe705       O710   2.090   1_545  S
Fe705       O716   1.929       .  S
Fe706       O709   2.016       .  S
Fe706       O713   1.983       .  S
Fe706       O717   2.039   1_545  S
Fe706       O722   2.001   1_545  S
Fe706       O716   1.935       .  S
Fe707       O725   2.119       .  S
Fe707       O712   2.086   1_545  S
Fe707       O719   2.106       .  S
Fe707       O708   2.122   1_545  S
Fe707       O716   1.978       .  S
O708        C715   1.283       .  A
O709        C723   1.249       .  A
O710        C715   1.275       .  A
O711        C714   1.278       .  A
O712        C724   1.275       .  A
O713        C726   1.242       .  A
C714        O719   1.280       .  A
C714       C2069   1.525       .  S
C715       C1557   1.529       .  S
O717        C720   1.271       .  A
O718        C720   1.281       .  A
O721        C726   1.270       .  A
O722        C724   1.257       .  A
C723        O725   1.273       .  A
C723       C2197   1.488       .  S
C724       C1493   1.460       .  S
C726        C748   1.437       .  S
Fe727       O743   2.059       .  S
Fe727       O733   2.125       .  S
Fe727       O740   2.069       .  S
Fe727       O732   2.095       .  S
Fe727       O738   1.925       .  S
Fe728       O731   2.015       .  S
Fe728       O735   2.001       .  S
Fe728       O739   2.035       .  S
Fe728       O744   2.025       .  S
Fe728       O738   1.954       .  S
Fe729       O747   2.103       .  S
Fe729       O734   2.067       .  S
Fe729       O741   2.089       .  S
Fe729       O730   2.095       .  S
Fe729       O738   1.989       .  S
O730        C737   1.272       .  A
O731        C745   1.251       .  A
O732        C737   1.270       .  A
O733        C736   1.284       .  A
O734        C746   1.274       .  A
O735        C748   1.252       .  A
C736        O741   1.281       .  A
C736       C2181   1.521       .  S
C737       C1346   1.517       .  S
O739        C742   1.264       .  A
O740        C742   1.277       .  A
O743        C748   1.273       .  A
O744        C746   1.266       .  A
C745        O747   1.264       .  A
C745       C2085   1.485       .  S
C746       C1362   1.445       .  S
Fe749       O765   2.078       .  S
Fe749       O755   2.086       .  S
Fe749       O762   2.087       .  S
Fe749       O754   2.080       .  S
Fe749       O760   1.943       .  S
Fe750       O753   2.026       .  S
Fe750       O757   2.006       .  S
Fe750       O761   2.017       .  S
Fe750       O766   2.021       .  S
Fe750       O760   1.935       .  S
Fe751       O769   2.115       .  S
Fe751       O756   2.105       .  S
Fe751       O763   2.125       .  S
Fe751       O752   2.107       .  S
Fe751       O760   2.041       .  S
O752        C759   1.279       .  A
O753        C767   1.243       .  A
O754        C759   1.269       .  A
O755        C758   1.276       .  A
O756        C768   1.268       .  A
O757        C770   1.258       .  A
C758        O763   1.285       .  A
C758       C1314   1.516       .  S
C759       C1701   1.522       .  S
O761        C764   1.254       .  A
O762        C764   1.276       .  A
C764        C786   1.453       .  S
O765        C770   1.276       .  A
O766        C768   1.248       .  A
C767        O769   1.269       .  A
C767       C1330   1.501       .  S
C768       C1813   1.485       .  S
C770        C836   1.441       .  S
Fe771       O787   2.101       .  S
Fe771       O777   2.100       .  S
Fe771       O784   2.095   1_455  S
Fe771       O776   2.118   1_455  S
Fe771       O782   1.941       .  S
Fe772       O775   2.017       .  S
Fe772       O779   2.027       .  S
Fe772       O783   2.003   1_455  S
Fe772       O788   2.027   1_455  S
Fe772       O782   1.942       .  S
Fe773       O791   2.078       .  S
Fe773       O778   2.088   1_455  S
Fe773       O785   2.097       .  S
Fe773       O774   2.079   1_455  S
Fe773       O782   2.042       .  S
O774        C781   1.274       .  A
O775        C789   1.248       .  A
O776        C781   1.279       .  A
O777        C780   1.277       .  A
O778        C790   1.262       .  A
O779        C792   1.262       .  A
C780        O785   1.275       .  A
C780       C2517   1.507       .  S
C781       C1797   1.527       .  S
O783        C786   1.252       .  A
O784        C786   1.276       .  A
O787        C792   1.282       .  A
O788        C790   1.247       .  A
C789        O791   1.267       .  A
C789       C2386   1.483       .  S
C790       C1717   1.482       .  S
C792        C814   1.460       .  S
Fe793       O809   2.094       .  S
Fe793       O799   2.111       .  S
Fe793       O806   2.077       .  S
Fe793       O798   2.100       .  S
Fe793       O804   1.938       .  S
Fe794       O797   2.018       .  S
Fe794       O801   2.026       .  S
Fe794       O805   2.027       .  S
Fe794       O810   2.005       .  S
Fe794       O804   1.938       .  S
Fe795       O813   2.098       .  S
Fe795       O800   2.083       .  S
Fe795       O807   2.088       .  S
Fe795       O796   2.105       .  S
Fe795       O804   1.987       .  S
O796        C803   1.276       .  A
O797        C811   1.255       .  A
O798        C803   1.274       .  A
O799        C802   1.279       .  A
O800        C812   1.273       .  A
O801        C814   1.258       .  A
C802        O807   1.276       .  A
C802       C2373   1.499       .  S
C803       C1621   1.529       .  S
O805        C808   1.261       .  A
O806        C808   1.274       .  A
C808        C830   1.444       .  S
O809        C814   1.278       .  A
O810        C812   1.261       .  A
C811        O813   1.270       .  A
C811       C2530   1.484       .  S
C812       C1525   1.463       .  S
Fe815       O831   2.068   1_455  S
Fe815       O821   2.102   1_455  S
Fe815       O828   2.090       .  S
Fe815       O820   2.084       .  S
Fe815       O826   1.946       .  S
Fe816       O819   2.037   1_455  S
Fe816       O823   2.015   1_455  S
Fe816       O827   2.020       .  S
Fe816       O832   2.007       .  S
Fe816       O826   1.944       .  S
Fe817       O835   2.114   1_455  S
Fe817       O822   2.083       .  S
Fe817       O829   2.089   1_455  S
Fe817       O818   2.110       .  S
Fe817       O826   1.962       .  S
O818        C825   1.278       .  A
O819        C833   1.259       .  A
O820        C825   1.272       .  A
O821        C824   1.277       .  A
O822        C834   1.274       .  A
O823        C836   1.254       .  A
C824        O829   1.277       .  A
C824       C1298   1.515       .  S
C825       C1509   1.522       .  S
O827        C830   1.261       .  A
O828        C830   1.277       .  A
O831        C836   1.270       .  A
O832        C834   1.257       .  A
C833        O835   1.275       .  A
C833       C1282   1.483       .  S
C834       C1637   1.458       .  S
Fe837       O853   2.150       .  S
Fe837       O843   2.080       .  S
Fe837       O850   2.105       .  S
Fe837       O842   2.152       .  S
Fe837       O848   1.963       .  S
Fe838       O841   2.049       .  S
Fe838       O845   2.151       .  S
Fe838       O849   2.029       .  S
Fe838       O854   2.078       .  S
Fe838       O848   2.004       .  S
Fe839       O857   2.075       .  S
Fe839       O844   2.017       .  S
Fe839       O851   2.011       .  S
Fe839       O840   2.034       .  S
Fe839       O848   1.914       .  S
O840        C847   1.265       .  A
O841        C855   1.272       .  A
O842        C847   1.289       .  A
O843        C846   1.273       .  A
O844        C856   1.250       .  A
O845        C858   1.292       .  A
C846        O851   1.258       .  A
C846       C1461   1.480       .  S
C847       C1301   1.509       .  S
O849        C852   1.271       .  A
O850        C852   1.270       .  A
C852       C1333   1.504       .  S
O853        C858   1.282       .  A
O854        C856   1.261       .  A
C855        O857   1.279       .  A
C855       C1250   1.459       .  S
C856       C1266   1.453       .  S
C858       C1394   1.528       .  S
Fe859       O875   2.175       .  S
Fe859       O865   2.073       .  S
Fe859       O872   2.061       .  S
Fe859       O864   2.173       .  S
Fe859       O870   1.964       .  S
Fe860       O863   2.017       .  S
Fe860       O867   2.013       .  S
Fe860       O871   2.022       .  S
Fe860       O876   2.093       .  S
Fe860       O870   1.929       .  S
Fe861       O879   2.075       .  S
Fe861       O866   2.048       .  S
Fe861       O873   2.067       .  S
Fe861       O862   2.126       .  S
Fe861       O870   1.992       .  S
O862        C869   1.287       .  A
O863        C877   1.249       .  A
O864        C869   1.282       .  A
O865        C868   1.269       .  A
O866        C878   1.275       .  A
O867        C880   1.261       .  A
C868        O873   1.277       .  A
C868       C1285   1.493       .  S
C869       C1218   1.535       .  S
O871        C874   1.256       .  A
O872        C874   1.268       .  A
C874       C1237   1.456       .  S
O875        C880   1.295       .  A
O876        C878   1.283       .  A
C877        O879   1.257       .  A
C877       C1269   1.451       .  S
C878       C1205   1.472       .  S
C880       C1317   1.502       .  S
Fe881       O897   2.168       .  S
Fe881       O887   2.078       .  S
Fe881       O894   2.104       .  S
Fe881       O886   2.164       .  S
Fe881       O892   1.952       .  S
Fe882       O885   2.047       .  S
Fe882       O889   2.043       .  S
Fe882       O893   2.042       .  S
Fe882       O898   2.037       .  S
Fe882       O892   1.959       .  S
Fe883       O901   2.058       .  S
Fe883       O888   2.072       .  S
Fe883       O895   2.036       .  S
Fe883       O884   2.046       .  S
Fe883       O892   1.947       .  S
O884        C891   1.272       .  A
O885        C899   1.266       .  A
O886        C891   1.287       .  A
O887        C890   1.274       .  A
O888        C900   1.273       .  A
O889        C902   1.270       .  A
C890        O895   1.261       .  A
C890       C1186   1.456       .  S
C891       C1442   1.519       .  S
O893        C896   1.257       .  A
O894        C896   1.273       .  A
C896       C1381   1.491       .  S
O897        C902   1.291       .  A
O898        C900   1.270       .  A
C899        O901   1.266       .  A
C899       C1202   1.482       .  S
C900       C1253   1.477       .  S
C902       C1170   1.515       .  S
Fe903       O919   2.077       .  S
Fe903       O909   2.136       .  S
Fe903       O916   2.095   1_556  S
Fe903       O908   2.112   1_556  S
Fe903       O914   1.937       .  S
Fe904       O907   1.998   1_554  S
Fe904       O911   2.054   1_554  S
Fe904       O915   2.022       .  S
Fe904       O920   2.025       .  S
Fe904       O914   1.946   1_554  S
Fe905       O923   2.092       .  S
Fe905       O910   2.072   1_556  S
Fe905       O917   2.092       .  S
Fe905       O906   2.107   1_556  S
Fe905       O914   1.970       .  S
O906        C913   1.278       .  A
O907        C921   1.261       .  A
O908        C913   1.282       .  A
O909        C912   1.280       .  A
O910        C922   1.268       .  A
O911        C924   1.260       .  A
C912        O917   1.272       .  A
C912       C1221   1.544       .  S
C913       C1733   1.528       .  S
O915        C918   1.260       .  A
O916        C918   1.273       .  A
C918        C984   1.454       .  S
O919        C924   1.280       .  A
O920        C922   1.263       .  A
C921        O923   1.275       .  A
C921       C1189   1.454       .  S
C922       C1669   1.467       .  S
C924        C946   1.463       .  S
Fe925       O941   2.105       .  S
Fe925       O931   2.145       .  S
Fe925       O938   2.098       .  S
Fe925       O930   2.120       .  S
Fe925       O936   1.948       .  S
Fe926       O929   2.021       .  S
Fe926       O933   1.986       .  S
Fe926       O937   2.037       .  S
Fe926       O942   2.007       .  S
Fe926       O936   1.944       .  S
Fe927       O945   2.086       .  S
Fe927       O932   2.084       .  S
Fe927       O939   2.064       .  S
Fe927       O928   2.079       .  S
Fe927       O936   1.989       .  S
O928        C935   1.269       .  A
O929        C943   1.253       .  A
O930        C935   1.277       .  A
O931        C934   1.288       .  A
O932        C944   1.272       .  A
O933        C946   1.244       .  A
C934        O939   1.270       .  A
C934       C1173   1.527       .  S
C935       C1154   1.531       .  S
O937        C940   1.271       .  A
O938        C940   1.288       .  A
C940        C962   1.453       .  S
O941        C946   1.273       .  A
O942        C944   1.257       .  A
C943        O945   1.268       .  A
C943       C1234   1.478       .  S
C944       C1138   1.482       .  S
Fe947       O963   2.075   1_556  S
Fe947       O953   2.096   1_556  S
Fe947       O960   2.089       .  S
Fe947       O952   2.097       .  S
Fe947       O958   1.936       .  S
Fe948       O951   2.036       .  S
Fe948       O955   2.047   1_556  S
Fe948       O959   2.006       .  S
Fe948       O964   2.023       .  S
Fe948       O958   1.947       .  S
Fe949       O967   2.087   1_556  S
Fe949       O954   2.095       .  S
Fe949       O961   2.107   1_556  S
Fe949       O950   2.091       .  S
Fe949       O958   1.983       .  S
O950        C957   1.277       .  A
O951        C965   1.263   1_556  A
O952        C957   1.278       .  A
O953        C956   1.273       .  A
O954        C966   1.270       .  A
O955        C968   1.271       .  A
C956        O961   1.275       .  A
C956       C1826   1.508       .  S
C957       C1106   1.501       .  S
O959        C962   1.249       .  A
O960        C962   1.269       .  A
O963        C968   1.281       .  A
O964        C966   1.251       .  A
C965        O967   1.276       .  A
C965       C1925   1.464       .  S
C966       C1122   1.480       .  S
C968        C990   1.449       .  S
Fe969       O985   2.090       .  S
Fe969       O975   2.110       .  S
Fe969       O982   2.107       .  S
Fe969       O974   2.078       .  S
Fe969       O980   1.952       .  S
Fe970       O973   2.022       .  S
Fe970       O977   1.987       .  S
Fe970       O981   2.031       .  S
Fe970       O986   1.989       .  S
Fe970       O980   1.935       .  S
Fe971       O989   2.102       .  S
Fe971       O976   2.100       .  S
Fe971       O983   2.082       .  S
Fe971       O972   2.104       .  S
Fe971       O980   2.000       .  S
O972        C979   1.275       .  A
O973        C987   1.254       .  A
O974        C979   1.270       .  A
O975        C978   1.281       .  A
O976        C988   1.275       .  A
O977        C990   1.246       .  A
C978        O983   1.275       .  A
C978       C1909   1.521       .  S
C979       C1650   1.511       .  S
O981        C984   1.266       .  A
O982        C984   1.285       .  A
O985        C990   1.266       .  A
O986        C988   1.252       .  A
C987        O989   1.270       .  A
C987       C1845   1.490       .  S
C988       C1746   1.490       .  S
Fe991      O1007   2.084       .  S
Fe991       O997   2.185       .  S
Fe991      O1004   2.171       .  S
Fe991       O996   2.077       .  S
Fe991      O1002   1.954       .  S
Fe992       O995   2.074       .  S
Fe992       O999   2.036       .  S
Fe992      O1003   2.046       .  S
Fe992      O1008   2.048       .  S
Fe992      O1002   1.933       .  S
Fe993      O1011   2.051       .  S
Fe993       O998   2.086       .  S
Fe993      O1005   2.037       .  S
Fe993       O994   2.033       .  S
Fe993      O1002   1.924       .  S
O994       C1001   1.250       .  A
O995       C1009   1.274       .  A
O996       C1001   1.267       .  A
O997       C1000   1.296       .  A
O998       C1010   1.276       .  A
O999       C1012   1.253       .  A
C1000      O1005   1.271       .  A
C1000      C1157   1.515       .  S
C1001      C1365   1.459       .  S
O1003      C1006   1.272       .  A
O1004      C1006   1.295       .  A
C1006      C1429   1.509       .  S
O1007      C1012   1.269       .  A
O1008      C1010   1.267       .  A
C1009      O1011   1.269       .  A
C1009      C1077   1.470       .  S
C1010      C1090   1.483       .  S
C1012      C1125   1.474       .  S
Fe1013     O1029   2.074       .  S
Fe1013     O1019   2.163       .  S
Fe1013     O1026   2.169       .  S
Fe1013     O1018   2.050       .  S
Fe1013     O1024   1.935       .  S
Fe1014     O1017   2.043       .  S
Fe1014     O1021   2.048       .  S
Fe1014     O1025   2.025       .  S
Fe1014     O1030   2.052       .  S
Fe1014     O1024   1.949       .  S
Fe1015     O1033   2.047       .  S
Fe1015     O1020   2.073       .  S
Fe1015     O1027   2.051       .  S
Fe1015     O1016   2.043       .  S
Fe1015     O1024   1.927       .  S
O1016      C1023   1.258       .  A
O1017      C1031   1.265       .  A
O1018      C1023   1.266       .  A
O1019      C1022   1.292       .  A
O1020      C1032   1.274       .  A
O1021      C1034   1.260       .  A
C1022      O1027   1.272       .  A
C1022      C2021   1.503       .  S
C1023      C1141   1.471       .  S
O1025      C1028   1.264       .  A
O1026      C1028   1.294       .  A
C1028      C1109   1.498       .  S
O1029      C1034   1.265       .  A
O1030      C1032   1.264       .  A
C1031      O1033   1.268       .  A
C1031      C1058   1.445       .  S
C1032      C1074   1.479       .  S
C1034      C1954   1.488       .  S
Fe1035     O1051   2.086       .  S
Fe1035     O1041   2.177       .  S
Fe1035     O1048   2.172       .  S
Fe1035     O1040   2.062       .  S
Fe1035     O1046   1.933       .  S
Fe1036     O1039   2.109       .  S
Fe1036     O1043   2.035       .  S
Fe1036     O1047   2.041       .  S
Fe1036     O1052   2.049       .  S
Fe1036     O1046   1.936       .  S
Fe1037     O1055   2.021       .  S
Fe1037     O1042   2.072       .  S
Fe1037     O1049   2.046       .  S
Fe1037     O1038   2.028       .  S
Fe1037     O1046   1.916       .  S
O1038      C1045   1.254       .  A
O1039      C1053   1.279       .  A
O1040      C1045   1.266       .  A
O1041      C1044   1.296       .  A
O1042      C1054   1.276       .  A
O1043      C1056   1.251       .  A
C1044      O1049   1.271       .  A
C1044      C1349   1.518       .  S
C1045      C2005   1.441       .  S
O1047      C1050   1.272       .  A
O1048      C1050   1.298       .  A
C1050      C1938   1.509       .  S
O1051      C1056   1.265       .  A
O1052      C1054   1.267       .  A
C1053      O1055   1.261       .  A
C1053      C1093   1.473       .  S
C1054      C1061   1.468       .  S
C1056      C1410   1.479       .  S
C1057      C1058   1.395       .  A
C1057      C1062   1.394       .  A
C1057      H1064   1.086       .  S
C1058      C1059   1.405       .  A
C1059      C1060   1.399       .  A
C1059      C1066   1.507       .  S
C1060      C1061   1.403       .  A
C1060      H1065   1.081       .  S
C1061      C1062   1.419       .  A
C1062      C1063   1.512       .  S
C1063      H1067   1.111       .  S
C1063      H1068   1.109       .  S
C1063      H1069   1.111       .  S
C1066      H1070   1.109       .  S
C1066      H1071   1.106       .  S
C1066      H1072   1.109       .  S
C1073      C1074   1.398       .  A
C1073      C1078   1.392       .  A
C1073      H1080   1.085       .  S
C1074      C1075   1.424       .  A
C1075      C1076   1.400       .  A
C1075      C1082   1.507       .  S
C1076      C1077   1.396       .  A
C1076      H1081   1.084       .  S
C1077      C1078   1.416       .  A
C1078      C1079   1.502       .  S
C1079      H1083   1.110       .  S
C1079      H1084   1.100       .  S
C1079      H1085   1.109       .  S
C1082      H1086   1.111       .  S
C1082      H1087   1.108       .  S
C1082      H1088   1.110       .  S
C1089      C1090   1.414       .  A
C1089      C1094   1.401       .  A
C1089      H1096   1.084       .  S
C1090      C1091   1.411       .  A
C1091      C1092   1.402       .  A
C1091      C1098   1.509       .  S
C1092      C1093   1.412       .  A
C1092      H1097   1.085       .  S
C1093      C1094   1.403       .  A
C1094      C1095   1.502       .  S
C1095      H1099   1.111       .  S
C1095      H1100   1.110       .  S
C1095      H1101   1.103       .  S
C1098      H1102   1.110       .  S
C1098      H1103   1.103       .  S
C1098      H1104   1.111       .  S
C1105      C1106   1.406       .  A
C1105      C1110   1.411       .  A
C1105      H1112   1.085       .  S
C1106      C1107   1.414       .  A
C1107      C1108   1.418       .  A
C1107      C1114   1.505       .  S
C1108      C1109   1.411       .  A
C1108      H1113   1.084       .  S
C1109      C1110   1.419       .  A
C1110      C1111   1.505       .  S
C1111      H1115   1.103       .  S
C1111      H1116   1.111       .  S
C1111      H1117   1.110       .  S
C1114      H1118   1.109       .  S
C1114      H1119   1.111       .  S
C1114      H1120   1.111       .  S
C1121      C1122   1.407       .  A
C1121      C1126   1.402       .  A
C1121      H1128   1.084       .  S
C1122      C1123   1.421       .  A
C1123      C1124   1.392       .  A
C1123      C1130   1.512       .  S
C1124      C1125   1.397       .  A
C1124      H1129   1.078       .  S
C1125      C1126   1.415       .  A
C1126      C1127   1.506       .  S
C1127      H1131   1.111       .  S
C1127      H1132   1.110       .  S
C1127      H1133   1.106       .  S
C1130      H1134   1.110       .  S
C1130      H1135   1.109       .  S
C1130      H1136   1.110       .  S
C1137      C1138   1.414       .  A
C1137      C1142   1.388       .  A
C1137      H1144   1.082       .  S
C1138      C1139   1.407       .  A
C1139      C1140   1.404       .  A
C1139      C1146   1.505       .  S
C1140      C1141   1.414       .  A
C1140      H1145   1.084       .  S
C1141      C1142   1.406       .  A
C1142      C1143   1.513       .  S
C1143      H1147   1.109       .  S
C1143      H1148   1.110       .  S
C1143      H1149   1.107       .  S
C1146      H1150   1.110       .  S
C1146      H1151   1.108       .  S
C1146      H1152   1.111       .  S
C1153      C1154   1.419       .  A
C1153      C1158   1.428       .  A
C1153      H1160   1.083       .  S
C1154      C1155   1.428       .  A
C1155      C1156   1.411       .  A
C1155      C1162   1.510       .  S
C1156      C1157   1.406       .  A
C1156      H1161   1.085       .  S
C1157      C1158   1.418       .  A
C1158      C1159   1.504       .  S
C1159      H1163   1.111       .  S
C1159      H1164   1.103       .  S
C1159      H1165   1.110       .  S
C1162      H1166   1.110       .  S
C1162      H1167   1.111       .  S
C1162      H1168   1.111       .  S
C1169      C1170   1.405       .  A
C1169      C1174   1.412       .  A
C1169      H1176   1.085       .  S
C1170      C1171   1.424       .  A
C1171      C1172   1.425       .  A
C1171      C1178   1.506       .  S
C1172      C1173   1.414       .  A
C1172      H1177   1.084       .  S
C1173      C1174   1.429       .  A
C1174      C1175   1.510       .  S
C1175      H1179   1.111       .  S
C1175      H1180   1.111       .  S
C1175      H1181   1.109       .  S
C1178      H1182   1.105       .  S
C1178      H1183   1.109       .  S
C1178      H1184   1.110       .  S
C1185      C1186   1.397       .  A
C1185      C1190   1.400       .  A
C1185      H1192   1.084       .  S
C1186      C1187   1.416       .  A
C1187      C1188   1.386       .  A
C1187      C1194   1.496       .  S
C1188      C1189   1.392       .  A
C1188      H1193   1.087       .  S
C1189      C1190   1.410       .  A
C1190      C1191   1.495       .  S
C1191      H1195   1.109       .  S
C1191      H1196   1.110       .  S
C1191      H1197   1.107   1_556  S
C1194      H1198   1.096       .  S
C1194      H1199   1.106       .  S
C1194      H1200   1.103       .  S
C1201      C1202   1.407       .  A
C1201      C1206   1.391       .  A
C1201      H1208   1.084       .  S
C1202      C1203   1.417       .  A
C1203      C1204   1.401       .  A
C1203      C1210   1.508       .  S
C1204      C1205   1.407       .  A
C1204      H1209   1.084       .  S
C1205      C1206   1.411       .  A
C1206      C1207   1.506       .  S
C1207      H1211   1.110       .  S
C1207      H1212   1.111       .  S
C1207      H1213   1.105       .  S
C1210      H1214   1.109       .  S
C1210      H1215   1.110       .  S
C1210      H1216   1.111       .  S
C1217      C1218   1.410       .  A
C1217      C1222   1.417       .  A
C1217      H1224   1.083       .  S
C1218      C1219   1.423       .  A
C1219      C1220   1.433       .  A
C1219      C1226   1.504       .  S
C1220      C1221   1.420       .  A
C1220      H1225   1.083       .  S
C1221      C1222   1.430       .  A
C1222      C1223   1.510       .  S
C1223      H1227   1.111       .  S
C1223      H1228   1.110       .  S
C1223      H1229   1.111       .  S
C1226      H1230   1.110       .  S
C1226      H1231   1.109       .  S
C1226      H1232   1.111       .  S
C1233      C1234   1.412       .  A
C1233      C1238   1.400       .  A
C1233      H1240   1.083       .  S
C1234      C1235   1.420       .  A
C1235      C1236   1.392       .  A
C1235      C1242   1.512       .  S
C1236      C1237   1.399       .  A
C1236      H1241   1.082       .  S
C1237      C1238   1.407       .  A
C1238      C1239   1.507       .  S
C1239      H1243   1.111       .  S
C1239      H1244   1.110       .  S
C1239      H1245   1.109       .  S
C1242      H1246   1.110       .  S
C1242      H1247   1.110       .  S
C1242      H1248   1.109       .  S
C1249      C1250   1.400       .  A
C1249      C1254   1.396       .  A
C1249      H1256   1.085       .  S
C1250      C1251   1.406       .  A
C1251      C1252   1.395       .  A
C1251      C1258   1.507       .  S
C1252      C1253   1.408       .  A
C1252      H1257   1.083       .  S
C1253      C1254   1.419       .  A
C1254      C1255   1.509       .  S
C1255      H1259   1.108       .  S
C1255      H1260   1.109       .  S
C1255      H1261   1.111       .  S
C1258      H1262   1.110       .  S
C1258      H1263   1.111       .  S
C1258      H1264   1.111       .  S
C1265      C1266   1.405       .  A
C1265      C1270   1.390       .  A
C1265      H1272   1.085       .  S
C1266      C1267   1.403       .  A
C1267      C1268   1.394       .  A
C1267      C1274   1.507       .  S
C1268      C1269   1.407       .  A
C1268      H1273   1.085       .  S
C1269      C1270   1.408       .  A
C1270      C1271   1.510       .  S
C1271      H1275   1.111       .  S
C1271      H1276   1.110       .  S
C1271      H1277   1.103       .  S
C1274      H1278   1.111       .  S
C1274      H1279   1.110       .  S
C1274      H1280   1.111       .  S
C1281      C1282   1.403       .  A
C1281      C1286   1.412       .  A
C1281      H1288   1.084       .  S
C1282      C1283   1.424       .  A
C1283      C1284   1.395       .  A
C1283      C1290   1.511       .  S
C1284      C1285   1.400       .  A
C1284      H1289   1.085       .  S
C1285      C1286   1.422       .  A
C1286      C1287   1.505       .  S
C1287      H1291   1.111       .  S
C1287      H1292   1.110       .  S
C1287      H1293   1.106       .  S
C1290      H1294   1.110   1_655  S
C1290      H1295   1.097       .  S
C1290      H1296   1.110       .  S
C1297      C1298   1.417       .  A
C1297      C1302   1.420       .  A
C1297      H1304   1.083       .  S
C1298      C1299   1.420       .  A
C1299      C1300   1.410       .  A
C1299      C1306   1.508       .  S
C1300      C1301   1.410       .  A
C1300      H1305   1.084       .  S
C1301      C1302   1.411       .  A
C1302      C1303   1.499       .  S
C1303      H1307   1.111       .  S
C1303      H1308   1.110       .  S
C1303      H1309   1.105       .  S
C1306      H1310   1.111       .  S
C1306      H1311   1.109       .  S
C1306      H1312   1.111       .  S
C1313      C1314   1.406       .  A
C1313      C1318   1.417       .  A
C1313      H1320   1.084       .  S
C1314      C1315   1.427       .  A
C1315      C1316   1.419       .  A
C1315      C1322   1.508       .  S
C1316      C1317   1.404       .  A
C1316      H1321   1.084       .  S
C1317      C1318   1.423       .  A
C1318      C1319   1.508       .  S
C1319      H1323   1.111       .  S
C1319      H1324   1.109       .  S
C1319      H1325   1.110       .  S
C1322      H1326   1.110       .  S
C1322      H1327   1.110       .  S
C1322      H1328   1.108       .  S
C1329      C1330   1.406       .  A
C1329      C1334   1.417       .  A
C1329      H1336   1.084       .  S
C1330      C1331   1.427       .  A
C1331      C1332   1.399       .  A
C1331      C1338   1.512       .  S
C1332      C1333   1.399       .  A
C1332      H1337   1.083       .  S
C1333      C1334   1.426       .  A
C1334      C1335   1.507       .  S
C1335      H1339   1.111       .  S
C1335      H1340   1.110       .  S
C1335      H1341   1.105       .  S
C1338      H1342   1.101       .  S
C1338      H1343   1.108       .  S
C1338      H1344   1.110       .  S
C1345      C1346   1.407       .  A
C1345      C1350   1.411       .  A
C1345      H1352   1.084       .  S
C1346      C1347   1.423       .  A
C1347      C1348   1.423       .  A
C1347      C1354   1.506       .  S
C1348      C1349   1.410       .  A
C1348      H1353   1.081       .  S
C1349      C1350   1.423       .  A
C1350      C1351   1.510       .  S
C1351      H1355   1.111       .  S
C1351      H1356   1.111       .  S
C1351      H1357   1.108       .  S
C1354      H1358   1.110       .  S
C1354      H1359   1.109       .  S
C1354      H1360   1.111       .  S
C1361      C1362   1.400       .  A
C1361      C1366   1.401       .  A
C1361      H1368   1.083       .  S
C1362      C1363   1.411       .  A
C1363      C1364   1.391       .  A
C1363      C1370   1.509       .  S
C1364      C1365   1.399       .  A
C1364      H1369   1.084       .  S
C1365      C1366   1.412       .  A
C1366      C1367   1.507       .  S
C1367      H1371   1.111       .  S
C1367      H1372   1.109       .  S
C1367      H1373   1.110       .  S
C1370      H1374   1.109       .  S
C1370      H1375   1.106       .  S
C1370      H1376   1.111       .  S
C1377      C1378   1.386       .  A
C1377      C1382   1.387       .  A
C1377      H1384   1.086       .  S
C1378      C1379   1.414       .  A
C1379      C1380   1.410       .  A
C1379      C1386   1.504       .  S
C1380      C1381   1.406       .  A
C1380      H1385   1.083       .  S
C1381      C1382   1.417       .  A
C1382      C1383   1.476       .  S
C1383      H1387   1.112       .  S
C1383      H1388   1.094       .  S
C1383      H1389   1.097       .  S
C1386      H1390   1.111       .  S
C1386      H1391   1.108       .  S
C1386      H1392   1.110       .  S
C1393      C1394   1.408       .  A
C1393      C1398   1.420       .  A
C1393      H1400   1.082       .  S
C1394      C1395   1.427       .  A
C1395      C1396   1.423       .  A
C1395      C1402   1.507       .  S
C1396      C1397   1.410       .  A
C1396      H1401   1.083       .  S
C1397      C1398   1.429       .  A
C1398      C1399   1.509       .  S
C1399      H1403   1.111       .  S
C1399      H1404   1.110       .  S
C1399      H1405   1.110       .  S
C1402      H1406   1.109       .  S
C1402      H1407   1.111       .  S
C1402      H1408   1.111       .  S
C1409      C1410   1.408       .  A
C1409      C1414   1.402       .  A
C1409      H1416   1.084       .  S
C1410      C1411   1.409       .  A
C1411      C1412   1.390       .  A
C1411      C1418   1.496       .  S
C1412      C1413   1.404       .  A
C1412      H1417   1.084       .  S
C1413      C1414   1.418       .  A
C1414      C1415   1.509       .  S
C1415      H1419   1.111       .  S
C1415      H1420   1.109       .  S
C1415      H1421   1.108       .  S
C1418      H1422   1.108       .  S
C1418      H1423   1.098       .  S
C1418      H1424   1.111       .  S
C1425      C1426   1.415       .  A
C1425      C1430   1.423       .  A
C1425      H1432   1.083       .  S
C1426      C1427   1.424       .  A
C1427      C1428   1.412       .  A
C1427      C1434   1.509       .  S
C1428      C1429   1.406       .  A
C1428      H1433   1.085       .  S
C1429      C1430   1.417       .  A
C1430      C1431   1.504       .  S
C1431      H1435   1.111       .  S
C1431      H1436   1.105       .  S
C1431      H1437   1.110       .  S
C1434      H1438   1.109       .  S
C1434      H1439   1.110       .  S
C1434      H1440   1.111       .  S
C1441      C1442   1.404       .  A
C1441      C1446   1.408       .  A
C1441      H1448   1.084       .  S
C1442      C1443   1.421       .  A
C1443      C1444   1.429       .  A
C1443      C1450   1.508       .  S
C1444      C1445   1.418       .  A
C1444      H1449   1.083       .  S
C1445      C1446   1.430       .  A
C1446      C1447   1.511       .  S
C1447      H1451   1.111       .  S
C1447      H1452   1.111       .  S
C1447      H1453   1.110       .  S
C1450      H1454   1.110       .  S
C1450      H1455   1.104       .  S
C1450      H1456   1.111       .  S
C1457      C1458   1.416       .  A
C1457      C1462   1.387       .  A
C1457      H1464   1.082       .  S
C1458      C1459   1.408       .  A
C1459      C1460   1.408       .  A
C1459      C1466   1.505       .  S
C1460      C1461   1.417       .  A
C1460      H1465   1.084       .  S
C1461      C1462   1.408       .  A
C1462      C1463   1.512       .  S
C1463      H1467   1.107   1_565  S
C1463      H1468   1.106       .  S
C1463      H1469   1.110       .  S
C1466      H1470   1.109       .  S
C1466      H1471   1.110       .  S
C1466      H1472   1.111       .  S
C1473      C1474   1.418       .  A
C1473      C1478   1.438       .  A
C1473      H1480   1.083       .  S
C1474      C1475   1.422       .  A
C1475      C1476   1.405       .  A
C1475      C1482   1.514       .  S
C1476      C1477   1.412       .  A
C1476      H1481   1.083       .  S
C1477      C1478   1.425       .  A
C1478      C1479   1.502       .  S
C1479      H1483   1.111       .  S
C1479      H1484   1.110       .  S
C1479      H1485   1.110       .  S
C1482      H1486   1.111       .  S
C1482      H1487   1.109       .  S
C1482      H1488   1.111       .  S
C1489      C1490   1.400       .  A
C1489      C1494   1.389       .  A
C1489      H1496   1.084       .  S
C1490      C1491   1.426       .  A
C1491      C1492   1.408       .  A
C1491      C1498   1.508       .  S
C1492      C1493   1.399       .  A
C1492      H1497   1.084       .  S
C1493      C1494   1.415       .  A
C1494      C1495   1.510       .  S
C1495      H1499   1.102       .  S
C1495      H1500   1.108       .  S
C1495      H1501   1.110       .  S
C1498      H1502   1.110       .  S
C1498      H1503   1.108       .  S
C1498      H1504   1.111       .  S
C1505      C1506   1.408       .  A
C1505      C1510   1.409       .  A
C1505      H1512   1.085       .  S
C1506      C1507   1.410       .  A
C1507      C1508   1.422       .  A
C1507      C1514   1.505       .  S
C1508      C1509   1.421       .  A
C1508      H1513   1.083       .  S
C1509      C1510   1.424       .  A
C1510      C1511   1.509       .  S
C1511      H1515   1.111       .  S
C1511      H1516   1.110       .  S
C1511      H1517   1.110       .  S
C1514      H1518   1.105       .  S
C1514      H1519   1.110       .  S
C1514      H1520   1.111       .  S
C1521      C1522   1.412       .  A
C1521      C1526   1.411       .  A
C1521      H1528   1.084       .  S
C1522      C1523   1.414       .  A
C1523      C1524   1.395       .  A
C1523      C1530   1.489       .  S
C1524      C1525   1.399       .  A
C1524      H1529   1.086       .  S
C1525      C1526   1.412       .  A
C1526      C1527   1.504       .  S
C1527      H1531   1.111       .  S
C1527      H1532   1.109       .  S
C1527      H1533   1.110       .  S
C1530      H1534   1.104       .  S
C1530      H1535   1.096       .  S
C1530      H1536   1.111       .  S
C1537      C1538   1.400       .  A
C1537      C1542   1.381       .  A
C1537      H1544   1.086       .  S
C1538      C1539   1.407       .  A
C1539      C1540   1.393       .  A
C1539      C1546   1.507       .  S
C1540      C1541   1.404       .  A
C1540      H1545   1.085       .  S
C1541      C1542   1.398       .  A
C1542      C1543   1.495       .  S
C1543      H1547   1.111       .  S
C1543      H1548   1.108       .  S
C1543      H1549   1.109       .  S
C1546      H1550   1.109       .  S
C1546      H1551   1.110       .  S
C1546      H1552   1.111       .  S
C1553      C1554   1.405       .  A
C1553      C1558   1.422       .  A
C1553      H1560   1.084       .  S
C1554      C1555   1.421       .  A
C1555      C1556   1.418       .  A
C1555      C1562   1.508       .  S
C1556      C1557   1.411       .  A
C1556      H1561   1.083       .  S
C1557      C1558   1.432       .  A
C1558      C1559   1.508       .  S
C1559      H1563   1.111       .  S
C1559      H1564   1.110       .  S
C1559      H1565   1.110       .  S
C1562      H1566   1.110       .  S
C1562      H1567   1.109       .  S
C1562      H1568   1.111       .  S
C1569      C1570   1.393       .  A
C1569      C1574   1.405       .  A
C1569      H1576   1.084       .  S
C1570      C1571   1.424       .  A
C1571      C1572   1.398       .  A
C1571      C1578   1.506       .  S
C1572      C1573   1.394       .  A
C1572      H1577   1.085       .  S
C1573      C1574   1.426       .  A
C1574      C1575   1.503       .  S
C1575      H1579   1.111       .  S
C1575      H1580   1.105       .  S
C1575      H1581   1.108       .  S
C1578      H1582   1.111       .  S
C1578      H1583   1.108       .  S
C1578      H1584   1.101       .  S
C1585      C1586   1.401       .  A
C1585      C1590   1.395       .  A
C1585      H1592   1.083       .  S
C1586      C1587   1.427       .  A
C1587      C1588   1.393       .  A
C1587      C1594   1.511       .  S
C1588      C1589   1.393       .  A
C1588      H1593   1.085       .  S
C1589      C1590   1.413       .  A
C1590      C1591   1.511       .  S
C1591      H1595   1.110       .  S
C1591      H1596   1.111       .  S
C1591      H1597   1.107       .  S
C1594      H1598   1.106       .  S
C1594      H1599   1.109       .  S
C1594      H1600   1.111       .  S
C1601      C1602   1.412       .  A
C1601      C1606   1.396       .  A
C1601      H1608   1.085       .  S
C1602      C1603   1.408       .  A
C1603      C1604   1.397       .  A
C1603      C1610   1.507       .  S
C1604      C1605   1.412       .  A
C1604      H1609   1.085       .  S
C1605      C1606   1.407       .  A
C1606      C1607   1.507       .  S
C1607      H1611   1.111       .  S
C1607      H1612   1.110       .  S
C1607      H1613   1.102       .  S
C1610      H1614   1.110       .  S
C1610      H1615   1.103       .  S
C1610      H1616   1.111       .  S
C1617      C1618   1.408       .  A
C1617      C1622   1.414       .  A
C1617      H1624   1.084       .  S
C1618      C1619   1.417       .  A
C1619      C1620   1.425       .  A
C1619      C1626   1.505       .  S
C1620      C1621   1.419       .  A
C1620      H1625   1.083       .  S
C1621      C1622   1.426       .  A
C1622      C1623   1.508       .  S
C1623      H1627   1.111       .  S
C1623      H1628   1.108       .  S
C1623      H1629   1.110       .  S
C1626      H1630   1.105       .  S
C1626      H1631   1.110       .  S
C1626      H1632   1.111       .  S
C1633      C1634   1.400       .  A
C1633      C1638   1.392       .  A
C1633      H1640   1.082       .  S
C1634      C1635   1.415       .  A
C1635      C1636   1.406       .  A
C1635      C1642   1.506       .  S
C1636      C1637   1.402       .  A
C1636      H1641   1.084       .  S
C1637      C1638   1.416       .  A
C1638      C1639   1.511       .  S
C1639      H1643   1.109       .  S
C1639      H1644   1.110       .  S
C1639      H1645   1.111       .  S
C1642      H1646   1.109       .  S
C1642      H1647   1.111       .  S
C1642      H1648   1.111       .  S
C1649      C1650   1.408       .  A
C1649      C1654   1.417       .  A
C1649      H1656   1.084       .  S
C1650      C1651   1.425       .  A
C1651      C1652   1.414       .  A
C1651      C1658   1.505       .  S
C1652      C1653   1.401       .  A
C1652      H1657   1.083       .  S
C1653      C1654   1.416       .  A
C1654      C1655   1.505       .  S
C1655      H1659   1.110       .  S
C1655      H1660   1.112       .  S
C1655      H1661   1.109       .  S
C1658      H1662   1.110       .  S
C1658      H1663   1.109       .  S
C1658      H1664   1.110       .  S
C1665      C1666   1.403       .  A
C1665      C1670   1.393       .  A
C1665      H1672   1.081       .  S
C1666      C1667   1.420       .  A
C1667      C1668   1.410       .  A
C1667      C1674   1.508       .  S
C1668      C1669   1.404       .  A
C1668      H1673   1.084       .  S
C1669      C1670   1.407       .  A
C1670      C1671   1.511       .  S
C1671      H1675   1.110       .  S
C1671      H1676   1.107       .  S
C1671      H1677   1.103       .  S
C1674      H1678   1.110       .  S
C1674      H1679   1.106       .  S
C1674      H1680   1.109       .  S
C1681      C1682   1.391       .  A
C1681      C1686   1.393       .  A
C1681      H1688   1.085       .  S
C1682      C1683   1.411       .  A
C1683      C1684   1.390       .  A
C1683      C1690   1.509       .  S
C1684      C1685   1.398       .  A
C1684      H1689   1.083       .  S
C1685      C1686   1.429       .  A
C1686      C1687   1.512       .  S
C1687      H1691   1.110       .  S
C1687      H1692   1.111       .  S
C1687      H1693   1.109       .  S
C1690      H1694   1.111       .  S
C1690      H1695   1.106       .  S
C1690      H1696   1.111       .  S
C1697      C1698   1.402       .  A
C1697      C1702   1.421       .  A
C1697      H1704   1.079       .  S
C1698      C1699   1.421       .  A
C1699      C1700   1.411       .  A
C1699      C1706   1.510       .  S
C1700      C1701   1.408       .  A
C1700      H1705   1.083       .  S
C1701      C1702   1.432       .  A
C1702      C1703   1.507       .  S
C1703      H1707   1.111       .  S
C1703      H1708   1.110       .  S
C1703      H1709   1.110       .  S
C1706      H1710   1.111       .  S
C1706      H1711   1.106       .  S
C1706      H1712   1.111       .  S
C1713      C1714   1.411       .  A
C1713      C1718   1.405       .  A
C1713      H1720   1.085       .  S
C1714      C1715   1.406       .  A
C1715      C1716   1.385       .  A
C1715      C1722   1.502       .  S
C1716      C1717   1.409       .  A
C1716      H1721   1.083       .  S
C1717      C1718   1.417       .  A
C1718      C1719   1.508       .  S
C1719      H1723   1.110       .  S
C1719      H1724   1.101       .  S
C1719      H1725   1.111       .  S
C1722      H1726   1.108       .  S
C1722      H1727   1.106       .  S
C1722      H1728   1.111       .  S
C1729      C1730   1.412       .  A
C1729      C1734   1.428       .  A
C1729      H1736   1.084       .  S
C1730      C1731   1.420       .  A
C1731      C1732   1.416       .  A
C1731      C1738   1.499       .  S
C1732      C1733   1.409       .  A
C1732      H1737   1.085       .  S
C1733      C1734   1.426       .  A
C1734      C1735   1.505       .  S
C1735      H1739   1.111       .  S
C1735      H1740   1.109       .  S
C1735      H1741   1.110       .  S
C1738      H1742   1.109       .  S
C1738      H1743   1.111       .  S
C1738      H1744   1.105       .  S
C1745      C1746   1.420       .  A
C1745      C1750   1.387       .  A
C1745      H1752   1.081       .  S
C1746      C1747   1.408       .  A
C1747      C1748   1.407       .  A
C1747      C1754   1.505       .  S
C1748      C1749   1.415       .  A
C1748      H1753   1.083       .  S
C1749      C1750   1.400       .  A
C1750      C1751   1.516       .  S
C1751      H1755   1.109       .  S
C1751      H1756   1.110       .  S
C1751      H1757   1.107       .  S
C1754      H1758   1.110       .  S
C1754      H1759   1.110       .  S
C1754      H1760   1.111       .  S
C1761      C1762   1.404       .  A
C1761      C1766   1.404       .  A
C1761      H1768   1.082       .  S
C1762      C1763   1.410       .  A
C1763      C1764   1.391       .  A
C1763      C1770   1.512       .  S
C1764      C1765   1.400       .  A
C1764      H1769   1.084       .  S
C1765      C1766   1.405       .  A
C1766      C1767   1.505       .  S
C1767      H1771   1.108       .  S
C1767      H1772   1.106       .  S
C1767      H1773   1.110       .  S
C1770      H1774   1.109       .  S
C1770      H1775   1.111       .  S
C1770      H1776   1.111       .  S
C1777      C1778   1.391       .  A
C1777      C1782   1.403       .  A
C1777      H1784   1.085       .  S
C1778      C1779   1.416       .  A
C1779      C1780   1.404       .  A
C1779      C1786   1.506       .  S
C1780      C1781   1.403       .  A
C1780      H1785   1.084       .  S
C1781      C1782   1.434       .  A
C1782      C1783   1.511       .  S
C1783      H1787   1.111       .  S
C1783      H1788   1.109       .  S
C1783      H1789   1.110       .  S
C1786      H1790   1.110       .  S
C1786      H1791   1.111       .  S
C1786      H1792   1.111       .  S
C1793      C1794   1.408       .  A
C1793      C1798   1.425       .  A
C1793      H1800   1.080       .  S
C1794      C1795   1.418       .  A
C1795      C1796   1.411       .  A
C1795      C1802   1.510       .  S
C1796      C1797   1.413       .  A
C1796      H1801   1.083       .  S
C1797      C1798   1.427       .  A
C1798      C1799   1.506       .  S
C1799      H1803   1.111       .  S
C1799      H1804   1.110       .  S
C1799      H1805   1.110       .  S
C1802      H1806   1.111       .  S
C1802      H1807   1.108       .  S
C1802      H1808   1.111       .  S
C1809      C1810   1.415       .  A
C1809      C1814   1.411       .  A
C1809      H1816   1.084       .  S
C1810      C1811   1.404       .  A
C1811      C1812   1.386       .  A
C1811      C1818   1.496       .  S
C1812      C1813   1.407       .  A
C1812      H1817   1.084       .  S
C1813      C1814   1.412       .  A
C1814      C1815   1.505       .  S
C1815      H1819   1.111       .  S
C1815      H1820   1.109       .  S
C1815      H1821   1.110       .  S
C1818      H1822   1.110       .  S
C1818      H1823   1.099       .  S
C1818      H1824   1.111       .  S
C1825      C1826   1.413       .  A
C1825      C1830   1.428       .  A
C1825      H1832   1.083       .  S
C1826      C1827   1.414       .  A
C1827      C1828   1.409       .  A
C1827      C1834   1.509       .  S
C1828      C1829   1.405       .  A
C1828      H1833   1.078       .  S
C1829      C1830   1.418       .  A
C1830      C1831   1.503       .  S
C1831      H1835   1.111       .  S
C1831      H1836   1.110       .  S
C1831      H1837   1.110       .  S
C1834      H1838   1.108       .  S
C1834      H1839   1.110       .  S
C1834      H1840   1.111       .  S
C1841      C1842   1.393       .  A
C1841      C1846   1.398       .  A
C1841      H1848   1.085       .  S
C1842      C1843   1.409       .  A
C1843      C1844   1.400       .  A
C1843      C1850   1.503       .  S
C1844      C1845   1.408       .  A
C1844      H1849   1.084       .  S
C1845      C1846   1.428       .  A
C1846      C1847   1.506       .  S
C1847      H1851   1.110       .  S
C1847      H1852   1.104       .  S
C1847      H1853   1.105       .  S
C1850      H1854   1.111       .  S
C1850      H1855   1.110       .  S
C1850      H1856   1.111       .  S
C1857      C1858   1.412       .  A
C1857      C1862   1.394       .  A
C1857      H1864   1.084       .  S
C1858      C1859   1.408       .  A
C1859      C1860   1.392       .  A
C1859      C1866   1.509       .  S
C1860      C1861   1.407       .  A
C1860      H1865   1.085       .  S
C1861      C1862   1.401       .  A
C1862      C1863   1.507       .  S
C1863      H1867   1.111       .  S
C1863      H1868   1.109       .  S
C1863      H1869   1.109       .  S
C1866      H1870   1.110       .  S
C1866      H1871   1.110       .  S
C1866      H1872   1.111       .  S
C1873      C1874   1.392       .  A
C1873      C1878   1.393       .  A
C1873      H1880   1.085       .  S
C1874      C1875   1.419       .  A
C1875      C1876   1.394       .  A
C1875      C1882   1.509       .  S
C1876      C1877   1.392       .  A
C1876      H1881   1.085       .  S
C1877      C1878   1.421       .  A
C1878      C1879   1.511       .  S
C1879      H1883   1.111       .  S
C1879      H1884   1.110       .  S
C1879      H1885   1.110       .  S
C1882      H1886   1.107       .  S
C1882      H1887   1.109       .  S
C1882      H1888   1.111       .  S
C1889      C1890   1.407       .  A
C1889      C1894   1.387       .  A
C1889      H1896   1.086       .  S
C1890      C1891   1.415       .  A
C1891      C1892   1.409       .  A
C1891      C1898   1.506       .  S
C1892      C1893   1.407       .  A
C1892      H1897   1.085       .  S
C1893      C1894   1.405       .  A
C1894      C1895   1.509       .  S
C1895      H1899   1.110       .  S
C1895      H1900   1.107       .  S
C1895      H1901   1.111       .  S
C1898      H1902   1.106       .  S
C1898      H1903   1.107       .  S
C1898      H1904   1.111       .  S
C1905      C1906   1.405       .  A
C1905      C1910   1.410       .  A
C1905      H1912   1.085       .  S
C1906      C1907   1.415       .  A
C1907      C1908   1.422       .  A
C1907      C1914   1.505       .  S
C1908      C1909   1.417       .  A
C1908      H1913   1.083       .  S
C1909      C1910   1.426       .  A
C1910      C1911   1.509       .  S
C1911      H1915   1.111       .  S
C1911      H1916   1.111       .  S
C1911      H1917   1.109       .  S
C1914      H1918   1.110       .  S
C1914      H1919   1.105       .  S
C1914      H1920   1.111       .  S
C1921      C1922   1.402       .  A
C1921      C1926   1.397       .  A
C1921      H1928   1.082       .  S
C1922      C1923   1.420       .  A
C1923      C1924   1.408       .  A
C1923      C1930   1.506       .  S
C1924      C1925   1.401       .  A
C1924      H1929   1.084       .  S
C1925      C1926   1.413       .  A
C1926      C1927   1.508       .  S
C1927      H1931   1.109       .  S
C1927      H1932   1.111       .  S
C1927      H1933   1.109       .  S
C1930      H1934   1.109       .  S
C1930      H1935   1.109       .  S
C1930      H1936   1.110       .  S
C1937      C1938   1.406       .  A
C1937      C1942   1.422       .  A
C1937      H1944   1.084       .  S
C1938      C1939   1.422       .  A
C1939      C1940   1.412       .  A
C1939      C1946   1.508       .  S
C1940      C1941   1.408       .  A
C1940      H1945   1.084       .  S
C1941      C1942   1.428       .  A
C1942      C1943   1.505       .  S
C1943      H1947   1.111       .  S
C1943      H1948   1.110       .  S
C1943      H1949   1.109       .  S
C1946      H1950   1.109       .  S
C1946      H1951   1.110       .  S
C1946      H1952   1.111       .  S
C1953      C1954   1.411       .  A
C1953      C1958   1.405       .  A
C1953      H1960   1.084       .  S
C1954      C1955   1.414       .  A
C1955      C1956   1.397       .  A
C1955      C1962   1.509       .  S
C1956      C1957   1.407       .  A
C1956      H1961   1.083       .  S
C1957      C1958   1.411       .  A
C1958      C1959   1.508       .  S
C1959      H1963   1.111       .  S
C1959      H1964   1.107       .  S
C1959      H1965   1.111       .  S
C1962      H1966   1.110       .  S
C1962      H1967   1.107       .  S
C1962      H1968   1.111       .  S
C1969      C1970   1.401       .  A
C1969      C1974   1.394       .  A
C1969      H1976   1.086       .  S
C1970      C1971   1.412       .  A
C1971      C1972   1.406       .  A
C1971      C1978   1.506       .  S
C1972      C1973   1.405       .  A
C1972      H1977   1.084       .  S
C1973      C1974   1.414       .  A
C1974      C1975   1.508       .  S
C1975      H1979   1.111       .  S
C1975      H1980   1.111       .  S
C1975      H1981   1.110       .  S
C1978      H1982   1.110       .  S
C1978      H1983   1.110       .  S
C1978      H1984   1.111       .  S
C1985      C1986   1.403       .  A
C1985      C1990   1.422       .  A
C1985      H1992   1.084       .  S
C1986      C1987   1.420       .  A
C1987      C1988   1.416       .  A
C1987      C1994   1.509       .  S
C1988      C1989   1.410       .  A
C1988      H1993   1.083       .  S
C1989      C1990   1.434       .  A
C1990      C1991   1.507       .  S
C1991      H1995   1.111       .  S
C1991      H1996   1.110       .  S
C1991      H1997   1.110       .  S
C1994      H1998   1.109       .  S
C1994      H1999   1.110       .  S
C1994      H2000   1.111       .  S
C2001      C2002   1.406       .  A
C2001      C2006   1.397       .  A
C2001      H2008   1.084       .  S
C2002      C2003   1.401       .  A
C2003      C2004   1.387       .  A
C2003      C2010   1.503       .  S
C2004      C2005   1.397       .  A
C2004      H2009   1.081       .  S
C2005      C2006   1.404       .  A
C2006      C2007   1.504       .  S
C2007      H2011   1.109       .  S
C2007      H2012   1.110       .  S
C2007      H2013   1.109       .  S
C2010      H2014   1.109       .  S
C2010      H2015   1.111       .  S
C2010      H2016   1.109       .  S
C2017      C2018   1.413       .  A
C2017      C2022   1.426       .  A
C2017      H2024   1.083       .  S
C2018      C2019   1.427       .  A
C2019      C2020   1.409       .  A
C2019      C2026   1.503       .  S
C2020      C2021   1.398       .  A
C2020      H2025   1.083       .  S
C2021      C2022   1.418       .  A
C2022      C2023   1.504       .  S
C2023      H2027   1.111       .  S
C2023      H2028   1.110       .  S
C2023      H2029   1.110       .  S
C2026      H2030   1.109       .  S
C2026      H2031   1.110       .  S
C2026      H2032   1.109       .  S
C2033      C2034   1.408       .  A
C2033      C2038   1.415       .  A
C2033      H2040   1.084       .  S
C2034      C2035   1.427       .  A
C2035      C2036   1.424       .  A
C2035      C2042   1.504       .  S
C2036      C2037   1.410       .  A
C2036      H2041   1.084       .  S
C2037      C2038   1.428       .  A
C2038      C2039   1.510       .  S
C2039      H2043   1.110       .  S
C2039      H2044   1.111       .  S
C2039      H2045   1.109       .  S
C2042      H2046   1.106       .  S
C2042      H2047   1.110       .  S
C2042      H2048   1.111       .  S
C2049      C2050   1.407       .  A
C2049      C2054   1.407       .  A
C2049      H2056   1.084       .  S
C2050      C2051   1.417       .  A
C2051      C2052   1.393       .  A
C2051      C2058   1.510       .  S
C2052      C2053   1.400       .  A
C2052      H2057   1.084       .  S
C2053      C2054   1.415       .  A
C2054      C2055   1.506       .  S
C2055      H2059   1.111       .  S
C2055      H2060   1.107       .  S
C2055      H2061   1.110       .  S
C2058      H2062   1.111       .  S
C2058      H2063   1.110       .  S
C2058      H2064   1.110       .  S
C2065      C2066   1.407       .  A
C2065      C2070   1.422       .  A
C2065      H2072   1.081       .  S
C2066      C2067   1.431       .  A
C2067      C2068   1.417       .  A
C2067      C2074   1.509       .  S
C2068      C2069   1.405       .  A
C2068      H2073   1.084       .  S
C2069      C2070   1.428       .  A
C2070      C2071   1.505       .  S
C2071      H2075   1.111       .  S
C2071      H2076   1.106       .  S
C2071      H2077   1.110       .  S
C2074      H2078   1.109       .  S
C2074      H2079   1.111       .  S
C2074      H2080   1.111       .  S
C2081      C2082   1.408       .  A
C2081      C2086   1.407       .  A
C2081      H2088   1.084       .  S
C2082      C2083   1.398       .  A
C2083      C2084   1.399       .  A
C2083      C2090   1.503       .  S
C2084      C2085   1.413       .  A
C2084      H2089   1.084       .  S
C2085      C2086   1.415       .  A
C2086      C2087   1.506       .  S
C2087      H2091   1.111       .  S
C2087      H2092   1.110       .  S
C2087      H2093   1.109       .  S
C2090      H2094   1.108       .  S
C2090      H2095   1.110       .  S
C2090      H2096   1.110       .  S
C2097      C2098   1.410       .  A
C2097      C2102   1.395       .  A
C2097      H2104   1.084       .  S
C2098      C2099   1.414       .  A
C2099      C2100   1.394       .  A
C2099      C2106   1.510       .  S
C2100      C2101   1.403       .  A
C2100      H2105   1.085       .  S
C2101      C2102   1.406       .  A
C2102      C2103   1.510       .  S
C2103      H2107   1.111       .  S
C2103      H2108   1.111       .  S
C2103      H2109   1.109       .  S
C2106      H2110   1.111       .  S
C2106      H2111   1.109       .  S
C2106      H2112   1.111       .  S
C2113      C2114   1.405       .  A
C2113      C2118   1.405       .  A
C2113      H2120   1.084       .  S
C2114      C2115   1.422       .  A
C2115      C2116   1.433       .  A
C2115      C2122   1.504       .  S
C2116      C2117   1.418       .  A
C2116      H2121   1.083       .  S
C2117      C2118   1.423       .  A
C2118      C2119   1.504       .  S
C2119      H2123   1.111       .  S
C2119      H2124   1.109       .  S
C2119      H2125   1.107       .  S
C2122      H2126   1.110       .  S
C2122      H2127   1.106       .  S
C2122      H2128   1.111       .  S
C2129      C2130   1.403       .  A
C2129      C2134   1.389       .  A
C2129      H2136   1.086       .  S
C2130      C2131   1.411       .  A
C2131      C2132   1.414       .  A
C2131      C2138   1.502       .  S
C2132      C2133   1.415       .  A
C2132      H2137   1.084       .  S
C2133      C2134   1.408       .  A
C2134      C2135   1.496       .  S
C2135      H2139   1.110       .  S
C2135      H2140   1.106       .  S
C2135      H2141   1.103       .  S
C2138      H2142   1.110       .  S
C2138      H2143   1.108       .  S
C2138      H2144   1.111       .  S
C2145      C2146   1.396       .  A
C2145      C2150   1.399       .  A
C2145      H2152   1.085       .  S
C2146      C2147   1.421       .  A
C2147      C2148   1.390       .  A
C2147      C2154   1.513       .  S
C2148      C2149   1.397       .  A
C2148      H2153   1.085       .  S
C2149      C2150   1.423       .  A
C2150      C2151   1.510       .  S
C2151      H2155   1.111       .  S
C2151      H2156   1.110       .  S
C2151      H2157   1.111       .  S
C2154      H2158   1.111       .  S
C2154      H2159   1.110       .  S
C2154      H2160   1.111       .  S
C2161      C2162   1.407       .  A
C2161      C2166   1.392       .  A
C2161      H2168   1.084       .  S
C2162      C2163   1.413       .  A
C2163      C2164   1.394       .  A
C2163      C2170   1.507       .  S
C2164      C2165   1.401       .  A
C2164      H2169   1.085       .  S
C2165      C2166   1.406       .  A
C2166      C2167   1.510       .  S
C2167      H2171   1.111       .  S
C2167      H2172   1.110       .  S
C2167      H2173   1.108       .  S
C2170      H2174   1.102       .  S
C2170      H2175   1.111       .  S
C2170      H2176   1.110       .  S
C2177      C2178   1.409       .  A
C2177      C2182   1.425       .  A
C2177      H2184   1.082       .  S
C2178      C2179   1.430       .  A
C2179      C2180   1.412       .  A
C2179      C2186   1.511       .  S
C2180      C2181   1.404       .  A
C2180      H2185   1.084       .  S
C2181      C2182   1.426       .  A
C2182      C2183   1.505       .  S
C2183      H2187   1.111       .  S
C2183      H2188   1.109       .  S
C2183      H2189   1.110       .  S
C2186      H2190   1.109       .  S
C2186      H2191   1.111       .  S
C2186      H2192   1.111       .  S
C2193      C2194   1.397       .  A
C2193      C2198   1.398       .  A
C2193      H2200   1.083       .  S
C2194      C2195   1.411       .  A
C2195      C2196   1.406       .  A
C2195      C2202   1.504       .  S
C2196      C2197   1.408       .  A
C2196      H2201   1.083       .  S
C2197      C2198   1.423       .  A
C2198      C2199   1.511       .  S
C2199      H2203   1.107       .  S
C2199      H2204   1.108       .  S
C2199      H2205   1.111       .  S
C2202      H2206   1.110       .  S
C2202      H2207   1.109       .  S
C2202      H2208   1.110       .  S
C2209      C2210   1.418       .  A
C2209      C2214   1.427       .  A
C2209      H2216   1.083       .  S
C2210      C2211   1.425       .  A
C2211      C2212   1.417       .  A
C2211      C2218   1.508       .  S
C2212      C2213   1.412       .  A
C2212      H2217   1.084       .  S
C2213      C2214   1.421       .  A
C2214      C2215   1.504       .  S
C2215      H2219   1.111       .  S
C2215      H2220   1.110       .  S
C2215      H2221   1.105       .  S
C2218      H2222   1.111       .  S
C2218      H2223   1.109       .  S
C2218      H2224   1.111       .  S
C2225      C2226   1.403       .  A
C2225      C2230   1.387       .  A
C2225      H2232   1.086       .  S
C2226      C2227   1.406       .  A
C2227      C2228   1.402       .  A
C2227      C2234   1.503       .  S
C2228      C2229   1.404       .  A
C2228      H2233   1.084       .  S
C2229      C2230   1.404       .  A
C2230      C2231   1.509       .  S
C2231      H2235   1.111       .  S
C2231      H2236   1.108       .  S
C2231      H2237   1.110       .  S
C2234      H2238   1.110       .  S
C2234      H2239   1.110       .  S
C2234      H2240   1.110       .  S
C2241      C2242   1.404       .  A
C2241      C2246   1.405       .  A
C2241      H2248   1.084       .  S
C2242      C2243   1.412       .  A
C2243      C2244   1.394       .  A
C2243      C2250   1.511       .  S
C2244      C2245   1.402       .  A
C2244      H2249   1.082       .  S
C2245      C2246   1.414       .  A
C2246      C2247   1.506       .  S
C2247      H2251   1.111       .  S
C2247      H2252   1.109       .  S
C2247      H2253   1.110       .  S
C2250      H2254   1.109       .  S
C2250      H2255   1.108       .  S
C2250      H2256   1.111       .  S
C2257      C2258   1.406       .  A
C2257      C2262   1.415       .  A
C2257      H2264   1.085       .  S
C2258      C2259   1.421       .  A
C2259      C2260   1.422       .  A
C2259      C2266   1.505       .  S
C2260      C2261   1.416       .  A
C2260      H2265   1.084       .  S
C2261      C2262   1.427       .  A
C2262      C2263   1.509       .  S
C2263      H2267   1.111       .  S
C2263      H2268   1.109       .  S
C2263      H2269   1.111       .  S
C2266      H2270   1.110       .  S
C2266      H2271   1.106       .  S
C2266      H2272   1.110       .  S
C2273      C2274   1.410       .  A
C2273      C2278   1.392       .  A
C2273      H2280   1.084       .  S
C2274      C2275   1.411       .  A
C2275      C2276   1.405       .  A
C2275      C2282   1.505       .  S
C2276      C2277   1.410       .  A
C2276      H2281   1.085       .  S
C2277      C2278   1.402       .  A
C2278      C2279   1.500       .  S
C2279      H2283   1.111       .  S
C2279      H2284   1.103       .  S
C2279      H2285   1.109       .  S
C2282      H2286   1.110       .  S
C2282      H2287   1.107       .  S
C2282      H2288   1.111       .  S
C2289      C2290   1.409       .  A
C2289      C2294   1.418       .  A
C2289      H2296   1.084       .  S
C2290      C2291   1.428       .  A
C2291      C2292   1.419       .  A
C2291      C2298   1.507       .  S
C2292      C2293   1.405       .  A
C2292      H2297   1.080       .  S
C2293      C2294   1.423       .  A
C2294      C2295   1.508       .  S
C2295      H2299   1.111       .  S
C2295      H2300   1.108       .  S
C2295      H2301   1.110       .  S
C2298      H2302   1.110       .  S
C2298      H2303   1.110       .  S
C2298      H2304   1.110       .  S
C2305      C2306   1.420       .  A
C2305      C2310   1.428       .  A
C2305      H2312   1.083       .  S
C2306      C2307   1.427       .  A
C2307      C2308   1.414       .  A
C2307      C2314   1.509       .  S
C2308      C2309   1.408       .  A
C2308      H2313   1.084       .  S
C2309      C2310   1.418       .  A
C2310      C2311   1.505       .  S
C2311      H2315   1.106       .  S
C2311      H2316   1.110       .  S
C2311      H2317   1.111       .  S
C2314      H2318   1.109       .  S
C2314      H2319   1.110       .  S
C2314      H2320   1.111       .  S
C2321      C2322   1.402       .  A
C2321      C2326   1.404       .  A
C2321      H2328   1.083       .  S
C2322      C2323   1.413       .  A
C2323      C2324   1.394       .  A
C2323      C2330   1.510       .  S
C2324      C2325   1.400       .  A
C2324      H2329   1.082       .  S
C2325      C2326   1.414       .  A
C2326      C2327   1.507       .  S
C2327      H2331   1.111       .  S
C2327      H2332   1.109       .  S
C2327      H2333   1.110       .  S
C2330      H2334   1.109       .  S
C2330      H2335   1.108       .  S
C2330      H2336   1.111       .  S
C2337      C2338   1.406       .  A
C2337      C2342   1.415       .  A
C2337      H2344   1.084       .  S
C2338      C2339   1.428       .  A
C2339      C2340   1.426       .  A
C2339      C2346   1.506       .  S
C2340      C2341   1.412       .  A
C2340      H2345   1.081       .  S
C2341      C2342   1.434       .  A
C2342      C2343   1.511       .  S
C2343      H2347   1.111       .  S
C2343      H2348   1.110       .  S
C2343      H2349   1.110       .  S
C2346      H2350   1.110       .  S
C2346      H2351   1.110       .  S
C2346      H2352   1.111       .  S
C2353      C2354   1.413       .  A
C2353      C2358   1.403       .  A
C2353      H2360   1.083       .  S
C2354      C2355   1.415       .  A
C2355      C2356   1.403       .  A
C2355      C2362   1.508       .  S
C2356      C2357   1.409       .  A
C2356      H2361   1.085       .  S
C2357      C2358   1.402       .  A
C2358      C2359   1.504       .  S
C2359      H2363   1.111       .  S
C2359      H2364   1.107       .  S
C2359      H2365   1.110       .  S
C2362      H2366   1.111       .  S
C2362      H2367   1.109       .  S
C2362      H2368   1.111       .  S
C2369      C2370   1.411       .  A
C2369      C2374   1.421       .  A
C2369      H2376   1.084       .  S
C2370      C2371   1.419       .  A
C2371      C2372   1.409       .  A
C2371      C2378   1.508       .  S
C2372      C2373   1.403       .  A
C2372      H2377   1.085       .  S
C2373      C2374   1.415       .  A
C2374      C2375   1.503       .  S
C2375      H2379   1.111       .  S
C2375      H2380   1.110       .  S
C2375      H2381   1.110       .  S
C2378      H2382   1.108       .  S
C2378      H2383   1.108       .  S
C2378      H2384   1.111       .  S
C2385      C2386   1.413       .  A
C2385      C2390   1.393       .  A
C2385      H2392   1.084       .  S
C2386      C2387   1.409       .  A
C2387      C2388   1.404       .  A
C2387      C2394   1.505       .  S
C2388      C2389   1.413       .  A
C2388      H2393   1.085       .  S
C2389      C2390   1.401       .  A
C2390      C2391   1.505       .  S
C2391      H2395   1.110       .  S
C2391      H2396   1.102       .  S
C2391      H2397   1.110       .  S
C2394      H2398   1.110       .  S
C2394      H2399   1.110       .  S
C2394      H2400   1.111       .  S
C2401      C2402   1.404       .  A
C2401      C2406   1.413       .  A
C2401      H2408   1.086       .  S
C2402      C2403   1.425       .  A
C2403      C2404   1.419       .  A
C2403      C2410   1.506       .  S
C2404      C2405   1.407       .  A
C2404      H2409   1.085       .  S
C2405      C2406   1.430       .  A
C2406      C2407   1.510       .  S
C2407      H2411   1.111       .  S
C2407      H2412   1.109       .  S
C2407      H2413   1.110       .  S
C2410      H2414   1.108       .  S
C2410      H2415   1.110       .  S
C2410      H2416   1.112       .  S
C2417      C2418   1.414       .  A
C2417      C2422   1.407       .  A
C2417      H2424   1.084       .  S
C2418      C2419   1.399       .  A
C2419      C2420   1.391       .  A
C2419      C2426   1.503       .  S
C2420      C2421   1.416       .  A
C2420      H2425   1.083       .  S
C2421      C2422   1.412       .  A
C2422      C2423   1.505       .  S
C2423      H2427   1.111       .  S
C2423      H2428   1.110       .  S
C2423      H2429   1.107       .  S
C2426      H2430   1.097       .  S
C2426      H2431   1.108       .  S
C2426      H2432   1.110       .  S
C2433      C2434   1.409       .  A
C2433      C2438   1.396       .  A
C2433      H2440   1.085       .  S
C2434      C2435   1.407       .  A
C2435      C2436   1.391       .  A
C2435      C2442   1.503       .  S
C2436      C2437   1.405       .  A
C2436      H2441   1.084       .  S
C2437      C2438   1.407       .  A
C2438      C2439   1.508       .  S
C2439      H2443   1.111       .  S
C2439      H2444   1.110       .  S
C2439      H2445   1.109       .  S
C2442      H2446   1.111       .  S
C2442      H2447   1.104       .  S
C2442      H2448   1.110       .  S
C2449      C2450   1.410       .  A
C2449      C2454   1.420       .  A
C2449      H2456   1.084       .  S
C2450      C2451   1.415       .  A
C2451      C2452   1.421       .  A
C2451      C2458   1.495       .  S
C2452      C2453   1.413       .  A
C2452      H2457   1.084       .  S
C2453      C2454   1.424       .  A
C2454      C2455   1.507       .  S
C2455      H2459   1.111       .  S
C2455      H2460   1.111       .  S
C2455      H2461   1.109       .  S
C2458      H2462   1.109       .  S
C2458      H2463   1.109       .  S
C2458      H2464   1.111       .  S
C2465      C2466   1.412       .  A
C2465      C2470   1.401       .  A
C2465      H2472   1.084       .  S
C2466      C2467   1.405       .  A
C2467      C2468   1.401       .  A
C2467      C2474   1.507   1_554  S
C2468      C2469   1.410       .  A
C2468      H2473   1.084       .  S
C2469      C2470   1.410       .  A
C2470      C2471   1.508       .  S
C2471      H2475   1.111       .  S
C2471      H2476   1.109       .  S
C2471      H2477   1.110       .  S
C2474      H2478   1.103   1_556  S
C2474      H2479   1.109       .  S
C2474      H2480   1.111       .  S
C2481      C2482   1.399       .  A
C2481      C2486   1.384       .  A
C2481      H2488   1.084       .  S
C2482      C2483   1.414       .  A
C2483      C2484   1.402       .  A
C2483      C2490   1.508       .  S
C2484      C2485   1.401       .  A
C2484      H2489   1.081       .  S
C2485      C2486   1.411       .  A
C2486      C2487   1.513       .  S
C2487      H2491   1.110       .  S
C2487      H2492   1.110       .  S
C2487      H2493   1.108       .  S
C2490      H2494   1.108       .  S
C2490      H2495   1.111       .  S
C2490      H2496   1.111       .  S
C2497      C2498   1.406       .  A
C2497      C2502   1.388       .  A
C2497      H2504   1.084       .  S
C2498      C2499   1.421       .  A
C2499      C2500   1.398       .  A
C2499      C2506   1.509       .  S
C2500      C2501   1.395       .  A
C2500      H2505   1.085       .  S
C2501      C2502   1.404       .  A
C2502      C2503   1.510       .  S
C2503      H2507   1.111       .  S
C2503      H2508   1.110       .  S
C2503      H2509   1.110       .  S
C2506      H2510   1.109       .  S
C2506      H2511   1.109       .  S
C2506      H2512   1.111       .  S
C2513      C2514   1.412       .  A
C2513      C2518   1.422       .  A
C2513      H2520   1.084       .  S
C2514      C2515   1.414       .  A
C2515      C2516   1.412       .  A
C2515      C2522   1.497       .  S
C2516      C2517   1.405       .  A
C2516      H2521   1.085       .  S
C2517      C2518   1.418       .  A
C2518      C2519   1.504       .  S
C2519      H2523   1.111       .  S
C2519      H2524   1.110       .  S
C2519      H2525   1.110       .  S
C2522      H2526   1.101       .  S
C2522      H2527   1.108       .  S
C2522      H2528   1.108       .  S
C2529      C2530   1.402       .  A
C2529      C2534   1.398       .  A
C2529      H2536   1.084       .  S
C2530      C2531   1.432       .  A
C2531      C2532   1.405       .  A
C2531      C2538   1.514       .  S
C2532      C2533   1.391       .  A
C2532      H2537   1.084       .  S
C2533      C2534   1.412       .  A
C2534      C2535   1.505       .  S
C2535      H2539   1.111       .  S
C2535      H2540   1.111       .  S
C2535      H2541   1.110       .  S
C2538      H2542   1.100       .  S
C2538      H2543   1.106       .  S
C2538      H2544   1.111       .  S
C2545      C2546   1.407       .  A
C2545      C2550   1.418       .  A
C2545      H2552   1.084       .  S
C2546      C2547   1.412       .  A
C2547      C2548   1.418       .  A
C2547      C2554   1.505       .  S
C2548      C2549   1.417       .  A
C2548      H2553   1.083       .  S
C2549      C2550   1.426       .  A
C2550      C2551   1.507       .  S
C2551      H2555   1.111       .  S
C2551      H2556   1.109       .  S
C2551      H2557   1.111       .  S
C2554      H2558   1.111       .  S
C2554      H2559   1.109       .  S
C2554      H2560   1.111       .  S
C2561      C2562   1.399       .  A
C2561      C2566   1.392       .  A
C2561      H2568   1.084       .  S
C2562      C2563   1.407       .  A
C2563      C2564   1.404       .  A
C2563      C2570   1.505       .  S
C2564      C2565   1.406       .  A
C2564      H2569   1.084   1_565  S
C2565      C2566   1.403       .  A
C2566      C2567   1.503       .  S
C2567      H2571   1.107       .  S
C2567      H2572   1.109       .  S
C2567      H2573   1.111       .  S
C2570      H2574   1.110       .  S
C2570      H2575   1.110   1_565  S
C2570      H2576   1.111   1_565  S
C2577      C2578   1.413       .  A
C2577      C2582   1.401       .  A
C2577      H2584   1.084       .  S
C2578      C2579   1.403       .  A
C2579      C2580   1.398       .  A
C2579      C2586   1.507       .  S
C2580      C2581   1.411       .  A
C2580      H2585   1.083       .  S
C2581      C2582   1.407       .  A
C2582      C2583   1.507       .  S
C2583      H2587   1.111       .  S
C2583      H2588   1.111       .  S
C2583      H2589   1.109       .  S
C2586      H2590   1.102       .  S
C2586      H2591   1.110       .  S
C2586      H2592   1.109       .  S
C2593      C2594   1.409       .  A
C2593      C2598   1.416       .  A
C2593      H2600   1.084       .  S
C2594      C2595   1.420       .  A
C2595      C2596   1.413       .  A
C2595      C2602   1.508       .  S
C2596      C2597   1.407       .  A
C2596      H2601   1.084       .  S
C2597      C2598   1.414       .  A
C2598      C2599   1.499       .  S
C2599      H2603   1.111       .  S
C2599      H2604   1.109       .  S
C2599      H2605   1.110       .  S
C2602      H2606   1.111       .  S
C2602      H2607   1.108       .  S
C2602      H2608   1.111       .  S
C2609      C2610   1.412       .  A
C2609      C2614   1.428       .  A
C2609      H2616   1.081       .  S
C2610      C2611   1.422       .  A
C2611      C2612   1.412       .  A
C2611      C2618   1.511       .  S
C2612      C2613   1.410       .  A
C2612      H2617   1.084       .  S
C2613      C2614   1.426       .  A
C2614      C2615   1.505       .  S
C2615      H2619   1.111       .  S
C2615      H2620   1.110       .  S
C2615      H2621   1.110       .  S
C2618      H2622   1.107       .  S
C2618      H2623   1.110       .  S
C2618      H2624   1.111       .  S
C2625      C2626   1.411       .  A
C2625      C2630   1.400       .  A
C2625      H2632   1.084       .  S
C2626      C2627   1.414       .  A
C2627      C2628   1.407       .  A
C2627      C2634   1.507       .  S
C2628      C2629   1.411       .  A
C2628      H2633   1.085       .  S
C2629      C2630   1.404       .  A
C2630      C2631   1.500       .  S
C2631      H2635   1.111   1_565  S
C2631      H2636   1.105       .  S
C2631      H2637   1.108       .  S
C2634      H2638   1.110       .  S
C2634      H2639   1.104       .  S
C2634      H2640   1.111       .  S
C2641      C2642   1.417       .  A
C2641      C2646   1.407       .  A
C2641      H2648   1.083       .  S
C2642      C2643   1.396       .  A
C2643      C2644   1.387       .  A
C2643      C2650   1.511       .  S
C2644      C2645   1.423       .  A
C2644      H2649   1.084       .  S
C2645      C2646   1.404       .  A
C2646      C2647   1.505       .  S
C2647      H2651   1.111       .  S
C2647      H2652   1.110       .  S
C2647      H2653   1.108       .  S
C2650      H2654   1.110       .  S
C2650      H2655   1.106       .  S
C2650      H2656   1.111       .  S
C2657      C2658   1.413       .  A
C2657      C2662   1.419       .  A
C2657      H2664   1.084       .  S
C2658      C2659   1.422       .  A
C2659      C2660   1.415       .  A
C2659      C2666   1.508       .  S
C2660      C2661   1.409       .  A
C2660      H2665   1.084       .  S
C2661      C2662   1.419       .  A
C2662      C2663   1.504       .  S
C2663      H2667   1.110       .  S
C2663      H2668   1.110       .  S
C2663      H2669   1.104       .  S
C2666      H2670   1.109       .  S
C2666      H2671   1.111       .  S
C2666      H2672   1.111       .  S
C2673      C2674   1.391       .  A
C2673      C2678   1.384       .  A
C2673      H2680   1.085       .  S
C2674      C2675   1.424       .  A
C2675      C2676   1.413       .  A
C2675      C2682   1.507       .  S
C2676      C2677   1.406       .  A
C2676      H2681   1.084       .  S
C2677      C2678   1.410       .  A
C2678      C2679   1.477       .  S
C2679      H2683   1.111       .  S
C2679      H2684   1.100       .  S
C2679      H2685   1.104       .  S
C2682      H2686   1.110       .  S
C2682      H2687   1.107       .  S
C2682      H2688   1.111       .  S
C2689      C2690   1.405       .  A
C2689      C2694   1.409       .  A
C2689      H2696   1.084       .  S
C2690      C2691   1.427       .  A
C2691      C2692   1.422       .  A
C2691      C2698   1.506       .  S
C2692      C2693   1.407       .  A
C2692      H2697   1.079       .  S
C2693      C2694   1.432       .  A
C2694      C2695   1.513       .  S
C2695      H2699   1.111       .  S
C2695      H2700   1.110       .  S
C2695      H2701   1.110       .  S
C2698      H2702   1.110       .  S
C2698      H2703   1.110       .  S
C2698      H2704   1.111       .  S
C2705      C2706   1.412       .  A
C2705      C2710   1.418       .  A
C2705      H2712   1.084       .  S
C2706      C2707   1.425       .  A
C2707      C2708   1.411       .  A
C2707      C2714   1.509       .  S
C2708      C2709   1.407       .  A
C2708      H2713   1.085       .  S
C2709      C2710   1.416       .  A
C2710      C2711   1.498       .  S
C2711      H2715   1.111       .  S
C2711      H2716   1.106       .  S
C2711      H2717   1.109       .  S
C2714      H2718   1.110       .  S
C2714      H2719   1.109       .  S
C2714      H2720   1.111       .  S
C2721      C2722   1.408       .  A
C2721      C2726   1.397       .  A
C2721      H2728   1.083       .  S
C2722      C2723   1.401       .  A
C2723      C2724   1.395       .  A
C2723      C2730   1.508       .  S
C2724      C2725   1.415       .  A
C2724      H2729   1.083       .  S
C2725      C2726   1.406       .  A
C2726      C2727   1.509       .  S
C2727      H2731   1.111       .  S
C2727      H2732   1.104       .  S
C2727      H2733   1.110       .  S
C2730      H2734   1.109       .  S
C2730      H2735   1.110       .  S
C2730      H2736   1.111       .  S
C2737      C2738   1.399       .  A
C2737      C2742   1.405       .  A
C2737      H2744   1.085       .  S
C2738      C2739   1.417       .  A
C2739      C2740   1.427       .  A
C2739      C2746   1.502       .  S
C2740      C2741   1.413       .  A
C2740      H2745   1.083       .  S
C2741      C2742   1.424       .  A
C2742      C2743   1.506       .  S
C2743      H2747   1.111       .  S
C2743      H2748   1.104       .  S
C2743      H2749   1.106       .  S
C2746      H2750   1.110       .  S
C2746      H2751   1.111       .  S
C2746      H2752   1.111       .  S
C2753      C2754   1.408       .  A
C2753      C2758   1.390       .  A
C2753      H2760   1.084       .  S
C2754      C2755   1.409       .  A
C2755      C2756   1.403       .  A
C2755      C2762   1.507       .  S
C2756      C2757   1.414       .  A
C2756      H2761   1.084       .  S
C2757      C2758   1.412       .  A
C2758      C2759   1.510       .  S
C2759      H2763   1.111       .  S
C2759      H2764   1.105       .  S
C2759      H2765   1.100       .  S
C2762      H2766   1.107       .  S
C2762      H2767   1.110       .  S
C2762      H2768   1.111       .  S
C2769      C2770   1.410       .  A
C2769      C2774   1.422       .  A
C2769      H2776   1.084       .  S
C2770      C2771   1.412       .  A
C2771      C2772   1.410       .  A
C2771      C2778   1.494       .  S
C2772      C2773   1.402       .  A
C2772      H2777   1.085       .  S
C2773      C2774   1.419       .  A
C2774      C2775   1.504       .  S
C2775      H2779   1.111       .  S
C2775      H2780   1.109       .  S
C2775      H2781   1.111       .  S
C2778      H2782   1.109       .  S
C2778      H2783   1.107       .  S
C2778      H2784   1.106       .  S
C2785      C2786   1.390       .  A
C2785      C2790   1.394       .  A
C2785      H2792   1.084       .  S
C2786      C2787   1.423       .  A
C2787      C2788   1.401       .  A
C2787      C2794   1.509       .  S
C2788      C2789   1.398       .  A
C2788      H2793   1.084       .  S
C2789      C2790   1.432       .  A
C2790      C2791   1.516       .  S
C2791      H2795   1.110       .  S
C2791      H2796   1.102       .  S
C2791      H2797   1.102   1_455  S
C2794      H2798   1.108       .  S
C2794      H2799   1.111       .  S
C2794      H2800   1.111       .  S
C2801      C2802   1.407       .  A
C2801      C2806   1.401       .  A
C2801      H2808   1.085       .  S
C2802      C2803   1.402       .  A
C2803      C2804   1.393       .  A
C2803      C2810   1.509       .  S
C2804      C2805   1.415       .  A
C2804      H2809   1.083       .  S
C2805      C2806   1.412       .  A
C2806      C2807   1.506       .  S
C2807      H2811   1.111       .  S
C2807      H2812   1.110       .  S
C2807      H2813   1.109       .  S
C2810      H2814   1.111       .  S
C2810      H2815   1.108       .  S
C2810      H2816   1.111       .  S
C2817      C2818   1.409       .  A
C2817      C2822   1.410       .  A
C2817      H2824   1.085       .  S
C2818      C2819   1.422       .  A
C2819      C2820   1.423       .  A
C2819      C2826   1.506       .  S
C2820      C2821   1.416       .  A
C2820      H2825   1.084       .  S
C2821      C2822   1.424       .  A
C2822      C2823   1.509       .  S
C2823      H2827   1.111       .  S
C2823      H2828   1.109       .  S
C2823      H2829   1.110       .  S
C2826      H2830   1.110       .  S
C2826      H2831   1.105       .  S
C2826      H2832   1.110       .  S
C2833      C2834   1.396       .  A
C2833      C2838   1.393       .  A
C2833      H2840   1.086       .  S
C2834      C2835   1.415       .  A
C2835      C2836   1.409       .  A
C2835      C2842   1.504       .  S
C2836      C2837   1.406       .  A
C2836      H2841   1.084       .  S
C2837      C2838   1.413       .  A
C2838      C2839   1.489       .  S
C2839      H2843   1.111       .  S
C2839      H2844   1.102       .  S
C2839      H2845   1.094       .  S
C2842      H2846   1.110       .  S
C2842      H2847   1.109       .  S
C2842      H2848   1.111       .  S
C2849      C2850   1.418       .  A
C2849      C2854   1.428       .  A
C2849      H2856   1.084       .  S
C2850      C2851   1.427       .  A
C2851      C2852   1.411       .  A
C2851      C2858   1.510       .  S
C2852      C2853   1.409       .  A
C2852      H2857   1.085       .  S
C2853      C2854   1.422       .  A
C2854      C2855   1.501       .  S
C2855      H2859   1.110       .  S
C2855      H2860   1.108       .  S
C2855      H2861   1.106       .  S
C2858      H2862   1.109       .  S
C2858      H2863   1.110       .  S
C2858      H2864   1.111       .  S
C2865      C2866   1.418       .  A
C2865      C2870   1.405       .  A
C2865      H2872   1.083       .  S
C2866      C2867   1.407       .  A
C2867      C2868   1.391       .  A
C2867      C2874   1.500       .  S
C2868      C2869   1.408       .  A
C2868      H2873   1.084       .  S
C2869      C2870   1.407       .  A
C2870      C2871   1.506       .  S
C2871      H2875   1.111       .  S
C2871      H2876   1.107       .  S
C2871      H2877   1.110       .  S
C2874      H2878   1.109       .  S
C2874      H2879   1.107       .  S
C2874      H2880   1.110       .  S
C2881      C2882   1.399       .  A
C2881      C2886   1.393       .  A
C2881      H2888   1.084       .  S
C2882      C2883   1.420       .  A
C2883      C2884   1.396       .  A
C2883      C2890   1.510       .  S
C2884      C2885   1.399       .  A
C2884      H2889   1.084       .  S
C2885      C2886   1.417       .  A
C2886      C2887   1.507       .  S
C2887      H2891   1.110       .  S
C2887      H2892   1.111       .  S
C2887      H2893   1.104       .  S
C2890      H2894   1.111       .  S
C2890      H2895   1.109       .  S
C2890      H2896   1.111       .  S
C2897      C2898   1.398       .  A
C2897      C2902   1.384       .  A
C2897      H2904   1.085       .  S
C2898      C2899   1.412       .  A
C2899      C2900   1.407       .  A
C2899      C2906   1.503       .  S
C2900      C2901   1.404       .  A
C2900      H2905   1.083       .  S
C2901      C2902   1.411       .  A
C2902      C2903   1.514       .  S
C2903      H2907   1.111       .  S
C2903      H2908   1.111       .  S
C2903      H2909   1.107       .  S
C2906      H2910   1.108       .  S
C2906      H2911   1.110       .  S
C2906      H2912   1.111       .  S
C2913      C2914   1.407       .  A
C2913      C2918   1.426       .  A
C2913      H2920   1.083       .  S
C2914      C2915   1.420       .  A
C2915      C2916   1.410       .  A
C2915      C2922   1.509       .  S
C2916      C2917   1.409       .  A
C2916      H2921   1.084       .  S
C2917      C2918   1.430       .  A
C2918      C2919   1.506       .  S
C2919      H2923   1.111       .  S
C2919      H2924   1.110       .  S
C2919      H2925   1.109       .  S
C2922      H2926   1.109       .  S
C2922      H2927   1.111       .  S
C2922      H2928   1.111       .  S
C2929      C2930   1.402       .  A
C2929      C2934   1.399       .  A
C2929      H2936   1.084       .  S
C2930      C2931   1.423       .  A
C2931      C2932   1.397       .  A
C2931      C2938   1.510       .  S
C2932      C2933   1.398       .  A
C2932      H2937   1.083       .  S
C2933      C2934   1.422       .  A
C2934      C2935   1.510       .  S
C2935      H2939   1.111       .  S
C2935      H2940   1.110       .  S
C2935      H2941   1.108       .  S
C2938      H2942   1.110       .  S
C2938      H2943   1.110       .  S
C2938      H2944   1.106       .  S
C2945      C2946   1.419       .  A
C2945      C2950   1.427       .  A
C2945      H2952   1.083       .  S
C2946      C2947   1.427       .  A
C2947      C2948   1.407       .  A
C2947      C2954   1.510       .  S
C2948      C2949   1.406       .  A
C2948      H2953   1.085       .  S
C2949      C2950   1.416       .  A
C2950      C2951   1.507       .  S
C2951      H2955   1.111       .  S
C2951      H2956   1.105       .  S
C2951      H2957   1.110       .  S
C2954      H2958   1.109       .  S
C2954      H2959   1.110       .  S
C2954      H2960   1.111       .  S
C2961      C2962   1.394       .  A
C2961      C2966   1.393       .  A
C2961      H2968   1.086       .  S
C2962      C2963   1.405       .  A
C2963      C2964   1.408       .  A
C2963      C2970   1.503       .  S
C2964      C2965   1.411       .  A
C2964      H2969   1.084       .  S
C2965      C2966   1.417       .  A
C2966      C2967   1.487       .  S
C2967      H2971   1.096       .  S
C2967      H2972   1.111       .  S
C2967      H2973   1.102       .  S
C2970      H2974   1.106       .  S
C2970      H2975   1.111       .  S
C2970      H2976   1.111       .  S
