geometry optimzed in LAMMPS
_audit_creation_date              2020-11-30 
_audit_creation_method            'lammps2cif' 
_symmetry_space_group_name_H-M    'P1' 
_symmetry_Int_Tables_number       1 
_symmetry_cell_setting            triclinic 
loop_ 
_symmetry_equiv_pos_as_xyz 
  x,y,z 
_cell_length_a                    52.63084861 
_cell_length_b                    52.63741033835738 
_cell_length_c                    28.154396593363714 
_cell_angle_alpha                 89.88348951887814 
_cell_angle_beta                  90.04796613792396 
_cell_angle_gamma                 120.0798081343956 
loop_ 
_atom_site_label 
_atom_site_type_symbol 
_atom_site_fract_x 
_atom_site_fract_y 
_atom_site_fract_z 
_atom_site_charge 
O1          O  0.47218031  0.05274467  0.57559218    -0.75500
O2          O  0.48385135  0.02865570  0.63097230    -0.54500
C3          C  0.47438907  0.04597632  0.61878210     0.78200
O4          O  0.41895397  0.94423832  0.41477968    -0.60100
O5          O  0.45555122  0.96783026  0.36037625    -0.53200
C6          C  0.42856690  0.95066901  0.37184123     0.70200
O7          O  0.41687859  0.94314898  0.57529696    -0.74700
O8          O  0.45238483  0.96779888  0.63088396    -0.55300
C9          C  0.42569479  0.95011227  0.61850305     0.76200
O10         O  0.47637275  0.05563759  0.41602724    -0.59900
O11         O  0.48578080  0.02929623  0.36181831    -0.53000
C12         C  0.47771129  0.04782970  0.37317059     0.72800
Zr13       Zr  0.48415676  0.04317139  0.49640024     2.54700
O14         O  0.44274472  0.05159236  0.49525425    -0.80400
O15         O  0.51880106  0.09573190  0.49926637    -0.93800
Zr16       Zr  0.43815009  0.95519542  0.49571058     2.64700
O17         O  0.39146384  0.95435768  0.49636604    -0.98800
O18         O  0.41378993  0.90182714  0.49311206    -0.80900
O19         O  0.46021306  0.99899464  0.54101548    -0.84200
O20         O  0.46075843  0.99936422  0.45121240    -2.18900
O21         O  0.57848970  0.05494503  0.41923911    -0.67600
O22         O  0.54280943  0.03112518  0.36350844    -0.52200
C23         C  0.56938924  0.04914728  0.37597129     0.71200
O24         O  0.52149303  0.94273862  0.57863562    -0.60500
O25         O  0.50882715  0.96626019  0.63342974    -0.52500
C26         C  0.51828553  0.94890290  0.62176135     0.73000
O27         O  0.51961969  0.94049624  0.41675090    -0.71900
O28         O  0.51143867  0.96750545  0.36188835    -0.50600
C29         C  0.51858339  0.94831353  0.37360567     0.74400
O30         O  0.57701116  0.05462927  0.58003912    -0.67200
O31         O  0.54065172  0.02844225  0.63378563    -0.54400
C32         C  0.56723471  0.04751985  0.62283170     0.72700
Zr33       Zr  0.55807461  0.04092481  0.49907757     2.77500
O34         O  0.60378662  0.03979411  0.50054425    -0.98000
O35         O  0.58350713  0.09431619  0.50007392    -0.78800
Zr36       Zr  0.51227721  0.95313188  0.49761794     2.70100
O37         O  0.55511643  0.94699993  0.49685516    -0.80000
O38         O  0.48092334  0.90000751  0.50168214    -0.99100
Zr39       Zr  0.49722325  0.99770339  0.58735738     2.21500
Zr40       Zr  0.49882965  0.99850606  0.40701497     2.11100
O41         O  0.53623947  0.99731920  0.45306220    -2.47800
O42         O  0.53537232  0.99674180  0.54368778    -0.79800
O43         O  0.52199809  0.04302156  0.45111415    -0.72000
O44         O  0.47434283  0.95311841  0.54309820    -2.33000
O45         O  0.52093325  0.04261549  0.54413487    -2.29200
O46         O  0.47515580  0.95346987  0.45012975    -0.73800
H47         H  0.44625314  0.99978711  0.43073238     0.78200
H48         H  0.46541134  0.93620458  0.56387815     0.79300
H49         H  0.55101535  0.99715539  0.43294635     0.81500
H50         H  0.52933109  0.05937727  0.56516953     0.79100
H51         H  0.41200091  0.89563194  0.52674478     0.42200
H52         H  0.46622265  0.89520412  0.47622880     0.41100
H53         H  0.57202413  0.96728894  0.49725496     0.40800
H54         H  0.60227782  0.02816732  0.52918523     0.38700
H55         H  0.60414251  0.10041490  0.49237754     0.41900
H56         H  0.50785290  0.10412234  0.51502504     0.36700
H57         H  0.42673795  0.03382882  0.47997748     0.42800
H58         H  0.39351152  0.96868118  0.47165745     0.39200
H59         H  0.60215364  0.02695486  0.47367080     0.44100
H60         H  0.52079336  0.10238116  0.46585740     0.42800
H61         H  0.37713633  0.93497481  0.48303205     0.43000
H62         H  0.49346912  0.89226017  0.49003307     0.43300
O63         O  0.05060303  0.57816416  0.58034799    -0.75500
O64         O  0.02880164  0.54086156  0.63414929    -0.54500
C65         C  0.04486535  0.56814255  0.62316838     0.78200
O66         O  0.94066924  0.51990192  0.41948499    -0.60100
O67         O  0.96640186  0.51076676  0.36366816    -0.53200
C68         C  0.94756407  0.51816475  0.37621751     0.70200
O69         O  0.93944708  0.51692623  0.58034873    -0.74700
O70         O  0.96659446  0.50838472  0.63434295    -0.55300
C71         C  0.94711422  0.51526592  0.62322717     0.76200
O72         O  0.05498541  0.57950777  0.42015552    -0.59900
O73         O  0.03012932  0.54423139  0.36445745    -0.53000
C74         C  0.04857418  0.57065633  0.37691190     0.72800
Zr75       Zr  0.04082688  0.55865646  0.49963494     2.54700
O76         O  0.04099669  0.60494213  0.49645606    -0.80400
O77         O  0.09424891  0.58403054  0.50228096    -0.93800
Zr78       Zr  0.95306475  0.51169758  0.49935537     2.64700
O79         O  0.94865014  0.55549172  0.50389848    -0.98800
O80         O  0.89974635  0.48189246  0.49701353    -0.80900
O81         O  0.99681843  0.53538618  0.54470628    -0.84200
O82         O  0.99704537  0.53646056  0.45422654    -2.18900
O83         O  0.05771066  0.48012480  0.41585085    -0.67600
O84         O  0.03143968  0.48946080  0.36119829    -0.52200
C85         C  0.05055161  0.48218848  0.37289343     0.71200
O86         O  0.94742277  0.41642416  0.57447505    -0.60500
O87         O  0.96938894  0.45215837  0.63060532    -0.52500
C88         C  0.95358646  0.42522757  0.61785549     0.73000
O89         O  0.94317124  0.42004343  0.41351590    -0.71900
O90         O  0.96864323  0.45686859  0.36025418    -0.50600
C91         C  0.95006614  0.43008872  0.37079345     0.74400
O92         O  0.05464158  0.47381917  0.57555199    -0.67200
O93         O  0.02898853  0.48346659  0.63080257    -0.54400
C94         C  0.04704308  0.47496595  0.61862853     0.72700
Zr95       Zr  0.04417265  0.48526964  0.49647284     2.77500
O96         O  0.04984605  0.44213574  0.49319345    -0.98000
O97         O  0.09697870  0.51863893  0.50002286    -0.78800
Zr98       Zr  0.95646949  0.43813295  0.49505949     2.70100
O99         O  0.95744085  0.39252189  0.48854033    -0.80000
O100        O  0.90301649  0.41126143  0.49662488    -0.99100
Zr101      Zr  0.99832363  0.49732247  0.58763597     2.21500
Zr102      Zr  0.99895298  0.49972122  0.40757039     2.11100
O103        O  0.00053786  0.46162568  0.45054322    -2.47800
O104        O  0.00012271  0.46082396  0.54077071    -0.79800
O105        O  0.04343766  0.52303217  0.45165518    -0.72000
O106        O  0.95359062  0.47355740  0.54354258    -2.33000
O107        O  0.04326432  0.52176381  0.54451857    -2.29200
O108        O  0.95410514  0.47530171  0.45101132    -0.73800
H109        H  0.99663659  0.55125624  0.43443103     0.78200
H110        H  0.93672685  0.46411796  0.56434716     0.79300
H111        H  0.00116793  0.44750362  0.42945034     0.81500
H112        H  0.05999851  0.53038380  0.56562752     0.79100
H113        H  0.89549735  0.46158375  0.50275133     0.42200
H114        H  0.89722533  0.41818280  0.46808958     0.41100
H115        H  0.97458206  0.39584643  0.50781840     0.40800
H116        H  0.03558147  0.42933874  0.46886184     0.38700
H117        H  0.10559373  0.50575774  0.49722510     0.41900
H118        H  0.10039947  0.60496134  0.49724872     0.36700
H119        H  0.02110136  0.59991115  0.50719087     0.42800
H120        H  0.96260703  0.56902006  0.47984427     0.39200
H121        H  0.06933576  0.44906093  0.47855015     0.44100
H122        H  0.10000349  0.57812006  0.47263809     0.42800
H123        H  0.92898769  0.54939927  0.49061399     0.43000
H124        H  0.89756467  0.39079309  0.48895527     0.43300
O125        O  0.51967953  0.57772951  0.57679308    -0.75500
O126        O  0.51238753  0.54299170  0.63211585    -0.54500
C127        C  0.51943991  0.56927504  0.62000648     0.78200
O128        O  0.41616139  0.47157643  0.41870917    -0.60100
O129        O  0.45155485  0.48070736  0.36372701    -0.53200
C130        C  0.42497089  0.47252698  0.37565864     0.70200
O131        O  0.41831543  0.47429109  0.57946339    -0.74700
O132        O  0.45439686  0.48646914  0.63443800    -0.55300
C133        C  0.42761358  0.47729071  0.62259119     0.76200
O134        O  0.52370410  0.57631201  0.41563195    -0.59900
O135        O  0.51011412  0.53964245  0.36134909    -0.53000
C136        C  0.52093800  0.56679901  0.37265504     0.72800
Zr137      Zr  0.51255546  0.55660593  0.49654268     2.54700
O138        O  0.48181805  0.57892233  0.49062220    -0.80400
O139        O  0.55836688  0.60339553  0.49525584    -0.93800
Zr140      Zr  0.43737690  0.48112449  0.49864057     2.64700
O141        O  0.41398307  0.51100121  0.49812697    -0.98800
O142        O  0.39021252  0.43575687  0.50118689    -0.80900
O143        O  0.47472684  0.51983940  0.54410208    -0.84200
O144        O  0.47431163  0.51876161  0.45105433    -2.18900
O145        O  0.57661525  0.52258999  0.41752976    -0.67600
O146        O  0.54041086  0.51019275  0.36266950    -0.52200
C147        C  0.56734673  0.52003425  0.37445351     0.71200
O148        O  0.47823405  0.41985142  0.58210007    -0.60500
O149        O  0.48599232  0.45556390  0.63546365    -0.52500
C150        C  0.48016520  0.42950471  0.62478329     0.73000
O151        O  0.47081688  0.41599901  0.42117601    -0.71900
O152        O  0.48436140  0.45165961  0.36481038    -0.50600
C153        C  0.47434500  0.42488153  0.37776898     0.74400
O154        O  0.57722224  0.52151698  0.57738710    -0.67200
O155        O  0.54139269  0.50980117  0.63263031    -0.54400
C156        C  0.56810030  0.51873361  0.62055873     0.72700
Zr157      Zr  0.55627349  0.51240736  0.49775773     2.77500
O158        O  0.57464862  0.47815166  0.49766438    -0.98000
O159        O  0.60546247  0.55507000  0.49893354    -0.78800
Zr160      Zr  0.48141733  0.43743361  0.50051957     2.70100
O161        O  0.51187389  0.41474885  0.49622665    -0.80000
O162        O  0.43749908  0.38919544  0.50623341    -0.99100
Zr163      Zr  0.49756461  0.49822383  0.58850146     2.21500
Zr164      Zr  0.49628343  0.49586969  0.40787743     2.11100
O165        O  0.51893656  0.47401614  0.45237087    -2.47800
O166        O  0.51953082  0.47524713  0.54580211    -0.79800
O167        O  0.53441633  0.53428902  0.45233960    -0.72000
O168        O  0.45901131  0.45915390  0.54481690    -2.33000
O169        O  0.53545438  0.53578496  0.54202321    -2.29200
O170        O  0.45847884  0.45810149  0.45435168    -0.73800
H171        H  0.46582635  0.52694405  0.42968896     0.78200
H172        H  0.44449991  0.44449296  0.56576142     0.79300
H173        H  0.52727676  0.46541758  0.43164871     0.81500
H174        H  0.55043460  0.55082167  0.56179771     0.79100
H175        H  0.39534826  0.42006976  0.50282033     0.42200
H176        H  0.42335730  0.39004763  0.48400175     0.41100
H177        H  0.50440923  0.39979231  0.52179347     0.40800
H178        H  0.57960206  0.47709699  0.46408369     0.38700
H179        H  0.60221151  0.57202827  0.49746200     0.41900
H180        H  0.57025573  0.60200112  0.52132067     0.36700
H181        H  0.49570846  0.60027828  0.49320843     0.42800
H182        H  0.41880221  0.52074279  0.46666220     0.39200
H183        H  0.59386448  0.48876605  0.51398590     0.44100
H184        H  0.55306943  0.61796199  0.50640645     0.42800
H185        H  0.39270151  0.49660376  0.49642799     0.43000
H186        H  0.44295888  0.37567693  0.49092211     0.43300
O187        O  0.78473822  0.49155795  0.00254788    -0.75500
O188        O  0.83329867  0.52601345  0.00325942    -0.54500
C189        C  0.81208715  0.49921501  0.00308238     0.78200
O190        O  0.74213597  0.56992365  0.86567473    -0.60100
O191        O  0.71251459  0.57234797  0.92228944    -0.53200
C192        C  0.71868876  0.56978016  0.87892105     0.70200
O193        O  0.82494258  0.56575867  0.87003765    -0.74700
O194        O  0.85492083  0.56624306  0.92885275    -0.55300
C195        C  0.84717684  0.56411742  0.88497658     0.76200
O196        O  0.70101240  0.49378518  0.01106099    -0.59900
O197        O  0.68950317  0.52987303  0.00052249    -0.53000
C198        C  0.68268809  0.50306959  0.00800057     0.72800
Zr199      Zr  0.75331426  0.51294177  0.00347766     2.54700
O200        O  0.73166667  0.47347517  0.94539027    -0.80400
O201        O  0.73631899  0.47878657  0.07015333    -0.93800
Zr202      Zr  0.78570502  0.57278124  0.90042916     2.64700
O203        O  0.76984290  0.53859376  0.83396175    -0.98800
O204        O  0.80951826  0.61463577  0.84672852    -0.80900
O205        O  0.79300586  0.54125625  0.95162773    -0.84200
O206        O  0.74482590  0.54240301  0.94955387    -2.18900
O207        O  0.74064349  0.57283178  0.13001485    -0.67600
O208        O  0.71148614  0.57350182  0.07055175    -0.52200
C209        C  0.71728237  0.57216784  0.11465500     0.71200
O210        O  0.87096202  0.65540036  0.99961087    -0.60500
O211        O  0.87966931  0.61698311  0.99804497    -0.52500
C212        C  0.88814954  0.64449938  0.99818457     0.73000
O213        O  0.78583886  0.65827608  0.99634380    -0.71900
O214        O  0.73792321  0.62141841  0.99647865    -0.50600
C215        C  0.75791632  0.64870625  0.99711507     0.74400
O216        O  0.82562451  0.57287737  0.13350306    -0.67200
O217        O  0.85507754  0.57062398  0.07637356    -0.54400
C218        C  0.84749341  0.57020124  0.11996148     0.72700
Zr219      Zr  0.78562457  0.57688647  0.09856142     2.77500
O220        O  0.80555729  0.61939746  0.15069082    -0.98000
O221        O  0.77022780  0.54481169  0.16780065    -0.78800
Zr222      Zr  0.81760205  0.63615418  0.99584014     2.70100
O223        O  0.83860146  0.67660640  0.05218749    -0.80000
O224        O  0.83584822  0.66880663  0.92735397    -0.99100
Zr225      Zr  0.83320752  0.57221053  0.00125836     2.21500
Zr226      Zr  0.73678002  0.57504790  0.99731352     2.11100
O227        O  0.77713123  0.60728563  0.04689312    -2.47800
O228        O  0.82636598  0.60598135  0.04874113    -0.79800
O229        O  0.74492523  0.54495083  0.05095858    -0.72000
O230        O  0.82635586  0.60389819  0.94846945    -2.33000
O231        O  0.79319453  0.54338857  0.05300758    -2.29200
O232        O  0.77699790  0.60537076  0.94629054    -0.73800
H233        H  0.72778929  0.52985559  0.93056620     0.78200
H234        H  0.84340957  0.61497989  0.92860738     0.79300
H235        H  0.77237020  0.61966546  0.06569013     0.81500
H236        H  0.79741323  0.53120767  0.07340666     0.79100
H237        H  0.81620346  0.60747891  0.81967048     0.42200
H238        H  0.81810844  0.66738626  0.91255710     0.41100
H239        H  0.82300127  0.67140698  0.07617729     0.40800
H240        H  0.80165406  0.61094286  0.18312100     0.38700
H241        H  0.75357167  0.52605524  0.15637649     0.41900
H242        H  0.75376192  0.48510801  0.09063159     0.36700
H243        H  0.71912534  0.45563069  0.96437041     0.42800
H244        H  0.74946932  0.52332826  0.84181828     0.39200
H245        H  0.82710624  0.62877237  0.14691655     0.44100
H246        H  0.73252820  0.45989420  0.05646635     0.42800
H247        H  0.76787951  0.54946415  0.80679395     0.43000
H248        H  0.84639278  0.68877125  0.94117292     0.43300
O249        O  0.70540275  0.21311562  0.00138216    -0.75500
O250        O  0.69141899  0.16458854  0.00135574    -0.54500
C251        C  0.68583190  0.18570758  0.00240215     0.78200
O252        O  0.82747298  0.25314848  0.86234396    -0.60100
O253        O  0.85842219  0.28352110  0.91938370    -0.53200
C254        C  0.85069923  0.27660116  0.87578903     0.70200
O255        O  0.74019889  0.17104857  0.86650537    -0.74700
O256        O  0.71058678  0.14208629  0.92621033    -0.55300
C257        C  0.71636372  0.14903884  0.88206877     0.76200
O258        O  0.79286198  0.29630946  0.01232780    -0.59900
O259        O  0.83995258  0.30799417  0.99670717    -0.53000
C260        C  0.82039445  0.31486175  0.00731627     0.72800
Zr261      Zr  0.75834139  0.24442493  0.99954747     2.54700
O262        O  0.74516492  0.26721130  0.93615816    -0.80400
O263        O  0.73593870  0.26146656  0.05758003    -0.93800
Zr264      Zr  0.78537169  0.21119288  0.89763734     2.64700
O265        O  0.76740102  0.22982011  0.83458444    -0.98800
O266        O  0.80167140  0.18763794  0.84051958    -0.80900
O267        O  0.74645170  0.20436167  0.94832297    -0.84200
O268        O  0.79605391  0.25238526  0.94574783    -2.18900
O269        O  0.82954156  0.25732555  0.12623486    -0.67600
O270        O  0.85888272  0.28671692  0.06654277    -0.52200
C271        C  0.85162195  0.28115244  0.11051681     0.71200
O272        O  0.78166272  0.12573602  0.99904306    -0.60500
O273        O  0.73494029  0.11796768  0.00066256    -0.52500
C274        C  0.75344036  0.10885881  0.00095708     0.73000
O275        O  0.87034107  0.21116821  0.99394801    -0.71900
O276        O  0.88128969  0.25901479  0.99591245    -0.50600
C277        C  0.88855430  0.23907309  0.99588851     0.74400
O278        O  0.74425120  0.17229092  0.13056618    -0.67200
O279        O  0.71261996  0.14281056  0.07340266    -0.54400
C280        C  0.71963761  0.15034325  0.11703353     0.72700
Zr281      Zr  0.78962245  0.21116701  0.09583671     2.77500
O282        O  0.81323384  0.18795156  0.13751970    -0.98000
O283        O  0.77935642  0.22490145  0.17293152    -0.78800
Zr284      Zr  0.81658658  0.17915725  0.99368496     2.70100
O285        O  0.83818729  0.16103998  0.05156918    -0.80000
O286        O  0.83272577  0.16193250  0.92612627    -0.99100
Zr287      Zr  0.73736763  0.16456848  0.99893594     2.21500
Zr288      Zr  0.83621003  0.26005115  0.99434227     2.11100
O289        O  0.82839373  0.21987999  0.04413700    -2.47800
O290        O  0.77761421  0.17048277  0.04633843    -0.79800
O291        O  0.79806384  0.25187868  0.04811737    -0.72000
O292        O  0.77561349  0.17061852  0.94629391    -2.33000
O293        O  0.74888907  0.20481476  0.05026340    -2.29200
O294        O  0.82646192  0.21974478  0.94396297    -0.73800
H295        H  0.80095047  0.26943053  0.92645949     0.78200
H296        H  0.76938927  0.15336158  0.92694373     0.79300
H297        H  0.84557082  0.22477423  0.06302941     0.81500
H298        H  0.73262529  0.20103218  0.07066659     0.79100
H299        H  0.82308156  0.19683859  0.84588475     0.42200
H300        H  0.84848532  0.15882919  0.93898491     0.50100
H301        H  0.82131594  0.14487272  0.06842676     0.40800
H302        H  0.81477938  0.19458952  0.17081210     0.38700
H303        H  0.77669695  0.24190300  0.16625789     0.41900
H304        H  0.73658051  0.27884338  0.04271224     0.36700
H305        H  0.72926910  0.26978989  0.94980232     0.42800
H306        H  0.77303247  0.24998871  0.84461216     0.39200
H307        H  0.79819200  0.16683724  0.13843905     0.44100
H308        H  0.75030952  0.26953695  0.08390926     0.42800
H309        H  0.78012314  0.23252594  0.80690937     0.43000
H310        H  0.81627375  0.14192791  0.91953058     0.43300
O311        O  0.29654982  0.79258630  0.98472142    -0.75500
O312        O  0.30759349  0.84032158  0.99029412    -0.54500
C313        C  0.31469497  0.82039340  0.98485746     0.78200
O314        O  0.17009921  0.74226498  0.86553849    -0.60100
O315        O  0.14164600  0.71151404  0.92453526    -0.53200
C316        C  0.14837111  0.71798947  0.88046666     0.70200
O317        O  0.25202941  0.83029836  0.86337157    -0.74700
O318        O  0.28293082  0.85971339  0.92151626    -0.55300
C319        C  0.27580579  0.85296588  0.87774524     0.76200
O320        O  0.21315694  0.70493669  0.99790141    -0.59900
O321        O  0.16453997  0.69053217  0.99678333    -0.53000
C322        C  0.18576936  0.68507860  0.99742520     0.72800
Zr323      Zr  0.24457738  0.75816883  0.99506553     2.54700
O324        O  0.26163524  0.73782018  0.93353012    -0.80400
O325        O  0.26749493  0.74418603  0.05719640    -0.93800
Zr326      Zr  0.21017027  0.78717042  0.89791905     2.64700
O327        O  0.23033444  0.77171058  0.83366673    -0.98800
O328        O  0.18603324  0.80412910  0.84301748    -0.80900
O329        O  0.25151758  0.79737094  0.94497859    -0.84200
O330        O  0.20415273  0.74734555  0.94572306    -2.18900
O331        O  0.17560605  0.74170637  0.12974487    -0.67600
O332        O  0.14430431  0.71142505  0.07290367    -0.52200
C333        C  0.15301196  0.71770247  0.11625349     0.71200
O334        O  0.20916475  0.86950626  0.99707850    -0.60500
O335        O  0.25729935  0.88143477  0.99388078    -0.52500
C336        C  0.23694885  0.88821230  0.99434924     0.73000
O337        O  0.12520897  0.77991951  0.00216546    -0.71900
O338        O  0.11759481  0.73324313  0.00148199    -0.50600
C339        C  0.10840950  0.75166970  0.00271147     0.74400
O340        O  0.25528606  0.83055237  0.12758722    -0.67200
O341        O  0.28514016  0.86035745  0.06892169    -0.54400
C342        C  0.27869692  0.85340032  0.11292120     0.72700
Zr343      Zr  0.21315481  0.78742626  0.09573897     2.77500
O344        O  0.18935558  0.80450019  0.15097039    -0.98000
O345        O  0.23554711  0.77480145  0.16040750    -0.78800
Zr346      Zr  0.17848640  0.81554614  0.99955831     2.70100
O347        O  0.16260267  0.83415578  0.06548763    -0.80000
O348        O  0.15759580  0.83268171  0.93891053    -0.99100
Zr349      Zr  0.25972556  0.83677586  0.99580488     2.21500
Zr350      Zr  0.16465064  0.73664960  0.99818946     2.11100
O351        O  0.17146518  0.77590105  0.04902318    -2.47800
O352        O  0.22015173  0.82728591  0.04761200    -0.79800
O353        O  0.20540866  0.74726147  0.04755419    -0.72000
O354        O  0.21836765  0.82672234  0.94753847    -2.33000
O355        O  0.25333898  0.79748700  0.04585763    -2.29200
O356        O  0.16994841  0.77591404  0.94870958    -0.73800
H357        H  0.20001436  0.73065619  0.92616305     0.78200
H358        H  0.22238562  0.84339613  0.92790938     0.79300
H359        H  0.15471752  0.76994775  0.06957312     0.81500
H360        H  0.27071872  0.80290414  0.06455700     0.79100
H361        H  0.16513533  0.79347371  0.85273784     0.42200
H362        H  0.14542649  0.81519976  0.91906047     0.41100
H363        H  0.14378632  0.81726713  0.07622856     0.40800
H364        H  0.19987965  0.80719114  0.18136761     0.38700
H365        H  0.23930461  0.75965437  0.14686529     0.41900
H366        H  0.26889795  0.72759664  0.04360532     0.36700
H367        H  0.27199633  0.72933565  0.95095749     0.42800
H368        H  0.22815853  0.75283006  0.84461498     0.39200
H369        H  0.19547452  0.82469920  0.14027599     0.44100
H370        H  0.25227127  0.73508572  0.08214991     0.42800
H371        H  0.21611810  0.76631043  0.80725046     0.43000
H372        H  0.14324671  0.83615548  0.95620790     0.43300
O373        O  0.56690928  0.82452538  0.86777626    -0.75500
O374        O  0.57015602  0.85646149  0.92514462    -0.54500
C375        C  0.56717574  0.84794305  0.88162474     0.78200
O376        O  0.49513824  0.70121110  0.01616824    -0.60100
O377        O  0.53093933  0.68966882  0.00344377    -0.53200
C378        C  0.50426302  0.68276096  0.01255579     0.70200
O379        O  0.49109210  0.78385763  0.99635130    -0.74700
O380        O  0.52518642  0.83252074  0.99791662    -0.55300
C381        C  0.49849074  0.81112700  0.99575181     0.76200
O382        O  0.57308245  0.74249926  0.86654641    -0.59900
O383        O  0.57349591  0.71267376  0.92492409    -0.53000
C384        C  0.57279584  0.71915624  0.88098610     0.72800
Zr385      Zr  0.57249241  0.78474760  0.89997176     2.54700
O386        O  0.53503972  0.76387398  0.83833857    -0.80400
O387        O  0.61142319  0.80652821  0.84081868    -0.93800
Zr388      Zr  0.51301637  0.75305744  0.00324396     2.64700
O389        O  0.47375087  0.72687168  0.94584986    -0.98800
O390        O  0.47611599  0.73822196  0.06540595    -0.80900
O391        O  0.54083584  0.79239321  0.95023221    -0.84200
O392        O  0.54255983  0.74426367  0.95010973    -2.18900
O393        O  0.65845892  0.78688636  0.99264168    -0.67600
O394        O  0.62203373  0.73878467  0.99402395    -0.52200
C395        C  0.64917424  0.75904126  0.99201765     0.71200
O396        O  0.57575758  0.82958873  0.13154142    -0.60500
O397        O  0.56977590  0.85578544  0.07227441    -0.52500
C398        C  0.57199742  0.85059249  0.11625608     0.73000
O399        O  0.57478739  0.74293692  0.13046206    -0.71900
O400        O  0.57540711  0.71316782  0.07237045    -0.50600
C401        C  0.57403721  0.71932693  0.11616715     0.74400
O402        O  0.65479459  0.87141052  0.00447267    -0.67200
O403        O  0.61639804  0.88007288  0.00658859    -0.54400
C404        C  0.64392425  0.88852444  0.00830132     0.72700
Zr405      Zr  0.63625945  0.81848010  0.99539654     2.77500
O406        O  0.67669528  0.83914582  0.05193874    -0.98000
O407        O  0.66978652  0.83964042  0.92846587    -0.78800
Zr408      Zr  0.57710210  0.78723259  0.09864563     2.70100
O409        O  0.61776391  0.80821120  0.15484511    -0.80000
O410        O  0.54145279  0.76939977  0.16309060    -0.99100
Zr411      Zr  0.57190845  0.83325587  0.99889369     2.21500
Zr412      Zr  0.57568200  0.73746477  0.99892488     2.11100
O413        O  0.60783215  0.77846841  0.04765916    -2.47800
O414        O  0.60566289  0.82694780  0.04702604    -0.79800
O415        O  0.60551715  0.77733642  0.94704177    -0.72000
O416        O  0.54317976  0.79374511  0.05196794    -2.33000
O417        O  0.60378341  0.82631382  0.94677421    -2.29200
O418        O  0.54548987  0.74590090  0.05188694    -0.73800
H419        H  0.53026896  0.72694983  0.93153567     0.78200
H420        H  0.53092389  0.79807229  0.07195201     0.79300
H421        H  0.62050112  0.77398411  0.06631856     0.81500
H422        H  0.61490406  0.84335661  0.92684469     0.79100
H423        H  0.48737226  0.74308460  0.09542627     0.42200
H424        H  0.52643201  0.74932739  0.15333929     0.41100
H425        H  0.63288566  0.80462398  0.14069088     0.40800
H426        H  0.67354608  0.82239978  0.07213688     0.38700
H427        H  0.68947378  0.85097978  0.94312897     0.41900
H428        H  0.60382582  0.79306311  0.81329087     0.36700
H429        H  0.54596830  0.76544779  0.80882852     0.42800
H430        H  0.45547843  0.71970778  0.96456650     0.39200
H431        H  0.69431167  0.84386754  0.03282023     0.44100
H432        H  0.62730103  0.80368343  0.85385456     0.42800
H433        H  0.47436017  0.74237706  0.92510947     0.43000
H434        H  0.55172198  0.76639187  0.19011044     0.43300
O435        O  0.20580208  0.50236488  0.98667059    -0.75500
O436        O  0.15799537  0.46683607  0.99635111    -0.54500
C437        C  0.17822303  0.49352365  0.98897064     0.78200
O438        O  0.25291315  0.42520755  0.86527499    -0.60100
O439        O  0.28338472  0.42513146  0.92272411    -0.53200
C440        C  0.27668966  0.42629587  0.87910223     0.70200
O441        O  0.16812750  0.42536096  0.86652486    -0.74700
O442        O  0.13890976  0.42644604  0.92531694    -0.55300
C443        C  0.14602757  0.42723309  0.88143129     0.76200
O444        O  0.29200309  0.50504471  0.00085723    -0.59900
O445        O  0.30606438  0.47063560  0.99936967    -0.53000
C446        C  0.31166617  0.49743673  0.00141803     0.72800
Zr447      Zr  0.23945685  0.48398812  0.99653972     2.54700
O448        O  0.25880809  0.52215992  0.93581132    -0.80400
O449        O  0.25419478  0.52187682  0.05702652    -0.93800
Zr450      Zr  0.20892712  0.42154857  0.89874374     2.64700
O451        O  0.22406108  0.45545798  0.83178779    -0.98800
O452        O  0.18850105  0.37928209  0.84600723    -0.80900
O453        O  0.19995877  0.45296348  0.94682247    -0.84200
O454        O  0.24962182  0.45434719  0.94599817    -2.18900
O455        O  0.25444365  0.42533199  0.12893065    -0.67600
O456        O  0.28454395  0.42591373  0.07024649    -0.52200
C457        C  0.27798035  0.42616346  0.11416583     0.71200
O458        O  0.12567508  0.33913834  0.99629813    -0.60500
O459        O  0.11543208  0.37647831  0.99619887    -0.52500
C460        C  0.10771765  0.34915155  0.99505205     0.73000
O461        O  0.21322367  0.34063660  0.00006273    -0.71900
O462        O  0.26060818  0.37878857  0.00046069    -0.50600
C463        C  0.24132907  0.35125845  0.00147368     0.74400
O464        O  0.16945601  0.42607814  0.12953436    -0.67200
O465        O  0.13848105  0.42496868  0.07203796    -0.54400
C466        C  0.14663347  0.42694568  0.11559827     0.72700
Zr467      Zr  0.21017727  0.42255180  0.09680039     2.77500
O468        O  0.18984288  0.38179704  0.15305754    -0.98000
O469        O  0.22818159  0.45743742  0.16211310    -0.78800
Zr470      Zr  0.17944488  0.36048426  0.99876021     2.70100
O471        O  0.16120861  0.32557473  0.06432875    -0.80000
O472        O  0.16142364  0.32235597  0.93827862    -0.99100
Zr473      Zr  0.16088269  0.42229337  0.99848503     2.21500
Zr474      Zr  0.25949945  0.42410984  0.99706428     2.11100
O475        O  0.21982352  0.39197398  0.04786316    -2.47800
O476        O  0.16939861  0.39079841  0.04897198    -0.79800
O477        O  0.25005998  0.45465506  0.04760782    -0.72000
O478        O  0.16906788  0.39050545  0.94827443    -2.33000
O479        O  0.20077293  0.45391237  0.04845105    -2.29200
O480        O  0.21934674  0.39132705  0.94788040    -0.73800
H481        H  0.26636865  0.46681250  0.92635851     0.78200
H482        H  0.15216400  0.37857006  0.92860684     0.79300
H483        H  0.22518820  0.38040752  0.06770672     0.81500
H484        H  0.19608949  0.46624667  0.06750623     0.79100
H485        H  0.19426925  0.38780831  0.81375808     0.42200
H486        H  0.17758714  0.32936963  0.91484657     0.41100
H487        H  0.15345287  0.33413932  0.08747198     0.40800
H488        H  0.20675670  0.38462328  0.17247329     0.38700
H489        H  0.23370393  0.47653527  0.14707064     0.41900
H490        H  0.26449440  0.51676409  0.08133893     0.36700
H491        H  0.27578448  0.52161136  0.92188922     0.42800
H492        H  0.24391305  0.47155834  0.84032223     0.39200
H493        H  0.17782266  0.38604459  0.17515070     0.44100
H494        H  0.23571447  0.51796084  0.07260450     0.42800
H495        H  0.22732944  0.44510482  0.80526010     0.43000
H496        H  0.16119725  0.30539125  0.95398051     0.43300
O497        O  0.43174497  0.17248225  0.86741464    -0.75500
O498        O  0.42569382  0.13850876  0.92318788    -0.54500
C499        C  0.43046975  0.14846388  0.88034233     0.78200
O500        O  0.50700977  0.29056024  0.01150678    -0.60100
O501        O  0.47284918  0.30494628  0.00689384    -0.53200
C502        C  0.49943459  0.31029668  0.01072440     0.70200
O503        O  0.50296972  0.20292630  0.01025269    -0.74700
O504        O  0.46604704  0.15552155  0.00109018    -0.55300
C505        C  0.49312557  0.17512491  0.00748469     0.76200
O506        O  0.43168215  0.25682360  0.86965692    -0.59900
O507        O  0.43247815  0.28657441  0.92898485    -0.53000
C508        C  0.43387416  0.28082597  0.88492678     0.72800
Zr509      Zr  0.42627144  0.21160416  0.90149192     2.54700
O510        O  0.46218431  0.23092087  0.83750632    -0.80400
O511        O  0.38548846  0.19243371  0.84560172    -0.93800
Zr512      Zr  0.48528443  0.23764963  0.00552296     2.64700
O513        O  0.52331211  0.25559544  0.94469048    -0.98800
O514        O  0.52266045  0.25454056  0.06735488    -0.80900
O515        O  0.45566469  0.20016353  0.95099646    -0.84200
O516        O  0.45790061  0.24996292  0.95324292    -2.18900
O517        O  0.34376569  0.21582790  0.99399697    -0.67600
O518        O  0.38273391  0.26255094  0.99682087    -0.52200
C519        C  0.35506982  0.24405378  0.99479865     0.71200
O520        O  0.41706482  0.16131644  0.12977131    -0.60500
O521        O  0.42089197  0.13418944  0.07011012    -0.52500
C522        C  0.41892032  0.13931272  0.11417475     0.73000
O523        O  0.42628971  0.25123205  0.13348063    -0.71900
O524        O  0.42685524  0.28229460  0.07656045    -0.50600
C525        C  0.42769045  0.27527732  0.12011197     0.74400
O526        O  0.33875177  0.12623073  0.99782283    -0.67200
O527        O  0.37531116  0.11488136  0.99883129    -0.54400
C528        C  0.34810860  0.10773149  0.99955372     0.72700
Zr529      Zr  0.36151790  0.18026073  0.99503278     2.77500
O530        O  0.32164317  0.16181119  0.05266578    -0.98000
O531        O  0.32740683  0.16425462  0.92847877    -0.78800
Zr532      Zr  0.41994348  0.20608730  0.09919133     2.70100
O533        O  0.37791761  0.18970704  0.15188013    -0.80000
O534        O  0.45196264  0.21653841  0.16777314    -0.99100
Zr535      Zr  0.42201652  0.15961612  0.99788675     2.21500
Zr536      Zr  0.42653324  0.25917889  0.00193835     2.11100
O537        O  0.39179127  0.21850408  0.04869556    -2.47800
O538        O  0.38960356  0.16784397  0.04640673    -0.79800
O539        O  0.39493747  0.22134315  0.94853024    -0.72000
O540        O  0.45217705  0.19733499  0.05256754    -2.33000
O541        O  0.39246633  0.17019857  0.94623899    -2.29200
O542        O  0.45457476  0.24733874  0.05463836    -0.73800
H543        H  0.47122784  0.26715121  0.93515242     0.78200
H544        H  0.46302693  0.19140415  0.07302429     0.79300
H545        H  0.37998952  0.22395401  0.06768938     0.81500
H546        H  0.38085590  0.15379262  0.92546338     0.79100
H547        H  0.54052765  0.27078802  0.05262160     0.42200
H548        H  0.46503794  0.23811539  0.16778018     0.41100
H549        H  0.36810781  0.16801608  0.15133727     0.40800
H550        H  0.32873549  0.17687452  0.07794972     0.38700
H551        H  0.33167802  0.15079108  0.91016873     0.41900
H552        H  0.38194471  0.17269681  0.83696297     0.36700
H553        H  0.47835218  0.22788992  0.84850093     0.42800
H554        H  0.52195782  0.27157930  0.92846480     0.39200
H555        H  0.30580922  0.16350762  0.03660303     0.44100
H556        H  0.39385716  0.20437256  0.81652124     0.42800
H557        H  0.54201259  0.26576746  0.96256197     0.43000
H558        H  0.43895058  0.21248709  0.19557301     0.43300
C559        C  0.25516114  0.28773270  0.98010511    -0.11100
C560        C  0.28166012  0.29749319  0.00509549     0.06000
C561        C  0.29245673  0.32303176  0.03276202    -0.09900
C562        C  0.27852455  0.33962580  0.03267508    -0.11500
C563        C  0.25308314  0.33095895  0.00556113    -0.01300
C564        C  0.24088271  0.30430510  0.98051053    -0.10400
C565        C  0.29955271  0.28288618  0.00003745     0.06100
H566        H  0.31229148  0.33069738  0.05355941     0.08000
H567        H  0.28807603  0.35973642  0.05315437     0.11400
H568        H  0.22123881  0.29710862  0.95940666     0.11700
H569        H  0.24627367  0.26811526  0.95852038     0.08000
C570        C  0.28688267  0.25214438  0.00090364    -0.11100
C571        C  0.30464469  0.23921234  0.99825451    -0.10400
C572        C  0.33537269  0.25679960  0.99439864    -0.01300
C573        C  0.34772662  0.28748271  0.99206680    -0.11500
C574        C  0.33013120  0.30025801  0.99483179    -0.09900
H575        H  0.26337537  0.23817736  0.00489060     0.08000
H576        H  0.29439209  0.21554315  0.00015979     0.11700
H577        H  0.37121418  0.30189428  0.98859497     0.11400
H578        H  0.34058262  0.32395273  0.99286962     0.08000
C579        C  0.37589258  0.57414102  0.01762186    -0.11100
C580        C  0.40024159  0.57017365  0.01401534     0.06000
C581        C  0.39553855  0.54182516  0.00514352    -0.09900
C582        C  0.36680921  0.51780007  0.00112392    -0.11500
C583        C  0.34247593  0.52194318  0.00529647    -0.01300
C584        C  0.34755967  0.55050088  0.01346259    -0.10400
C585        C  0.43005904  0.59617478  0.01932245     0.06100
H586        H  0.41400038  0.53822944  0.00206983     0.08000
H587        H  0.36365841  0.49613171  0.99471587     0.11400
H588        H  0.32957121  0.55481802  0.01687077     0.11700
H589        H  0.37875354  0.59577206  0.02334142     0.08000
C590        C  0.45242938  0.60250360  0.98608231    -0.11100
C591        C  0.47819330  0.63012377  0.98600696    -0.10400
C592        C  0.48165475  0.65165126  0.01895583    -0.01300
C593        C  0.46032846  0.64438295  0.05430538    -0.11500
C594        C  0.43497871  0.61690444  0.05475502    -0.09900
H595        H  0.44914454  0.58694181  0.95831412     0.08000
H596        H  0.49428812  0.63538665  0.95817905     0.11700
H597        H  0.46262646  0.66056546  0.08028670     0.11400
H598        H  0.41840102  0.61241088  0.08140599     0.08000
C599        C  0.28611383  0.96868973  0.96830343    -0.11100
C600        C  0.27294995  0.98174881  0.99424088     0.06000
C601        C  0.24555130  0.96365665  0.01586287    -0.09900
C602        C  0.23260826  0.93287376  0.01409013    -0.11500
C603        C  0.24706430  0.92001673  0.99084107    -0.01300
C604        C  0.27335830  0.93829889  0.96656430    -0.10400
C605        C  0.28978961  0.01398715  0.00156182     0.06100
H606        H  0.23498680  0.97329623  0.03600452     0.08000
H607        H  0.21222800  0.91927313  0.03288085     0.11400
H608        H  0.28466748  0.92907155  0.94735822     0.11700
H609        H  0.30696822  0.98215839  0.95063904     0.08000
C610        C  0.31867384  0.02665622  0.01837295    -0.11100
C611        C  0.33686296  0.05698644  0.01915644    -0.10400
C612        C  0.32678427  0.07570921  0.00304226    -0.01300
C613        C  0.29724246  0.06317303  0.98881397    -0.11500
C614        C  0.27882191  0.03243013  0.98811883    -0.09900
H615        H  0.32750375  0.01292480  0.02963400     0.08000
H616        H  0.35922347  0.06574734  0.03146015     0.11700
H617        H  0.28877356  0.07699656  0.97649572     0.11400
H618        H  0.25655935  0.02307439  0.97505008     0.08000
C619        C  0.19672144  0.61955789  0.99846292    -0.11100
C620        C  0.16847739  0.59617901  0.98891179     0.06000
C621        C  0.14501859  0.60161597  0.98517890    -0.09900
C622        C  0.15022109  0.63047862  0.98885594    -0.11500
C623        C  0.17889746  0.65407081  0.99676397    -0.01300
C624        C  0.20187546  0.64803439  0.00234577    -0.10400
C625        C  0.16490118  0.56681900  0.98126011     0.06100
H626        H  0.12302879  0.58379209  0.97794682     0.08000
H627        H  0.13202214  0.63438740  0.98444341     0.11400
H628        H  0.22415320  0.66542360  0.00903295     0.11700
H629        H  0.21505897  0.61578855  0.00234279     0.08000
C630        C  0.18441425  0.56439848  0.95028231    -0.11100
C631        C  0.18719838  0.53954612  0.95099849    -0.10400
C632        C  0.17020860  0.51633380  0.98219673    -0.01300
C633        C  0.14851911  0.51731440  0.00991336    -0.11500
C634        C  0.14593767  0.54261750  0.00957011    -0.09900
H635        H  0.19894004  0.58264613  0.92767887     0.08000
H636        H  0.20374138  0.53907754  0.92872216     0.11700
H637        H  0.13517013  0.49956669  0.03417693     0.11400
H638        H  0.13075360  0.54411042  0.03375723     0.08000
C639        C  0.39476264  0.84836291  0.01062128    -0.11100
C640        C  0.40057987  0.83188668  0.97753848     0.06000
C641        C  0.37971033  0.81632738  0.94208115    -0.09900
C642        C  0.35250236  0.81468951  0.94256921    -0.11500
C643        C  0.34568126  0.82899095  0.97795903    -0.01300
C644        C  0.36739679  0.84698159  0.01073872    -0.10400
C645        C  0.42628379  0.82761247  0.98280442     0.06100
H646        H  0.38383509  0.80403816  0.91539090     0.08000
H647        H  0.33609500  0.80086638  0.91675284     0.11400
H648        H  0.36242267  0.85801809  0.03854033     0.11700
H649        H  0.41046393  0.86055761  0.03831942     0.08000
C650        C  0.45457062  0.85092536  0.99330800    -0.11100
C651        C  0.47833681  0.84592206  0.99749884    -0.10400
C652        C  0.47405443  0.81746623  0.99175099    -0.01300
C653        C  0.44558312  0.79427220  0.98197664    -0.11500
C654        C  0.42213348  0.79925837  0.97771801    -0.09900
H655        H  0.45834466  0.87299077  0.99757095     0.08000
H656        H  0.49994762  0.86422603  0.00530557     0.11700
H657        H  0.44124012  0.77201938  0.97738879     0.11400
H658        H  0.40051819  0.78067616  0.97083081     0.08000
C659        C  0.67172981  0.96736797  0.04254445    -0.11100
C660        C  0.69838460  0.98224010  0.01747491     0.06000
C661        C  0.70877536  0.96566525  0.99397462    -0.09900
C662        C  0.69184307  0.93490294  0.99301813    -0.11500
C663        C  0.66415026  0.92035121  0.01501076    -0.01300
C664        C  0.65472716  0.93685156  0.04101190    -0.10400
C665        C  0.71347979  0.01473336  0.01264959     0.06100
H666        H  0.72919695  0.97648720  0.97431531     0.08000
H667        H  0.69963154  0.92263313  0.97292141     0.11400
H668        H  0.63377624  0.92615801  0.05926396     0.11700
H669        H  0.66351726  0.97943580  0.06218944     0.08000
C670        C  0.69652637  0.02816478  0.00561534    -0.11100
C671        C  0.70971899  0.05846994  0.00163972    -0.10400
C672        C  0.74044538  0.07650845  0.00401931    -0.01300
C673        C  0.75766569  0.06318841  0.01017707    -0.11500
C674        C  0.74427088  0.03250432  0.01439299    -0.09900
H675        H  0.67284896  0.01516198  0.00273270     0.08000
H676        H  0.69555992  0.06768635  0.99656471     0.11700
H677        H  0.78135065  0.07643321  0.01226188     0.11400
H678        H  0.75790554  0.02273670  0.01980425     0.08000
C679        C  0.96848864  0.28949274  0.02211581    -0.11100
C680        C  0.98188216  0.27581058  0.99864698     0.06000
C681        C  0.96421990  0.24801321  0.97816355    -0.09900
C682        C  0.93348196  0.23502113  0.97868267    -0.11500
C683        C  0.92032718  0.24983854  0.99958886    -0.01300
C684        C  0.93814864  0.27672065  0.02253242    -0.10400
C685        C  0.01410145  0.29240108  0.99249774     0.06100
H686        H  0.97419036  0.23710859  0.95991161     0.08000
H687        H  0.92016068  0.21420392  0.96096274     0.11400
H688        H  0.92862472  0.28833819  0.03994176     0.11700
H689        H  0.98165477  0.31067437  0.03892227     0.08000
C690        C  0.02719721  0.32130724  0.97560628    -0.11100
C691        C  0.05753089  0.33906494  0.97506136    -0.10400
C692        C  0.07572376  0.32844235  0.99144835    -0.01300
C693        C  0.06275909  0.29891855  0.00589168    -0.11500
C694        C  0.03202914  0.28094934  0.00638835    -0.09900
H695        H  0.01381480  0.33044356  0.96389327     0.08000
H696        H  0.06671465  0.36146480  0.96262700     0.11700
H697        H  0.07624965  0.29012269  0.01846378     0.11400
H698        H  0.02228339  0.25864541  0.01949475     0.08000
C699        C  0.60235473  0.14458282  0.99900783    -0.11100
C700        C  0.59658267  0.16678356  0.01323801     0.06000
C701        C  0.62024905  0.19484699  0.02333470    -0.09900
C702        C  0.64897107  0.20065707  0.01990396    -0.11500
C703        C  0.65496553  0.17860821  0.00597082    -0.01300
C704        C  0.63139975  0.15040359  0.99573692    -0.10400
C705        C  0.56634617  0.16185568  0.01674933     0.06100
H706        H  0.61657768  0.21261558  0.03330223     0.08000
H707        H  0.66652587  0.22258640  0.02830076     0.11400
H708        H  0.63542003  0.13301553  0.98478514     0.11700
H709        H  0.58447709  0.12279092  0.99088743     0.08000
C710        C  0.54582098  0.14815837  0.97992867    -0.11100
C711        C  0.52016031  0.15009898  0.97850550    -0.10400
C712        C  0.51509991  0.16593514  0.01368298    -0.01300
C713        C  0.53427398  0.17719657  0.05242653    -0.11500
C714        C  0.55940930  0.17484278  0.05428271    -0.09900
H715        H  0.55063535  0.13795512  0.95060471     0.08000
H716        H  0.50557253  0.14130248  0.94826151     0.11700
H717        H  0.53055607  0.18922208  0.08014139     0.11400
H718        H  0.57444458  0.18488678  0.08371422     0.08000
C719        C  0.96544992  0.70703264  0.02167965    -0.11100
C720        C  0.98196337  0.69736566  0.99608988     0.06000
C721        C  0.96727617  0.67204564  0.96806178    -0.09900
C722        C  0.93676495  0.65573054  0.96771080    -0.11500
C723        C  0.92015399  0.66441104  0.99510616    -0.01300
C724        C  0.93463941  0.69064332  0.02113519    -0.10400
C725        C  0.01430083  0.71212539  0.00064950     0.06100
H726        H  0.97947785  0.66446969  0.94722645     0.08000
H727        H  0.92607776  0.63585787  0.94664347     0.11400
H728        H  0.92224773  0.69769511  0.04260422     0.11700
H729        H  0.97636543  0.72648868  0.04361734     0.08000
C730        C  0.03209080  0.74270472  0.99592746    -0.11100
C731        C  0.06277878  0.75593113  0.99767256    -0.10400
C732        C  0.07607089  0.73874239  0.00439604    -0.01300
C733        C  0.05799652  0.70823954  0.01091499    -0.11500
C734        C  0.02757563  0.69513948  0.00888191    -0.09900
H735        H  0.02227840  0.75621316  0.98953238     0.08000
H736        H  0.07605367  0.77943703  0.99264693     0.11700
H737        H  0.06730896  0.69423998  0.01694705     0.11400
H738        H  0.01434109  0.67157779  0.01357456     0.08000
C739        C  0.71670179  0.75145589  0.01203500    -0.11100
C740        C  0.70703677  0.72355929  0.99225410     0.06000
C741        C  0.68007318  0.70946130  0.96822297    -0.09900
C742        C  0.66212746  0.72181932  0.96663079    -0.11500
C743        C  0.67071185  0.74881434  0.98872558    -0.01300
C744        C  0.69861248  0.76408090  0.01016368    -0.10400
C745        C  0.72276118  0.70708187  0.99972568     0.06100
H746        H  0.67237119  0.68818215  0.95200037     0.08000
H747        H  0.64102762  0.70977070  0.94907916     0.11400
H748        H  0.70573507  0.78494911  0.02744284     0.11700
H749        H  0.73743311  0.76272549  0.03078830     0.08000
C750        C  0.75193462  0.71789131  0.98492195    -0.11100
C751        C  0.76414541  0.69940506  0.98518180    -0.10400
C752        C  0.74722756  0.66996920  0.00016649    -0.01300
C753        C  0.71874614  0.66008523  0.01753719    -0.11500
C754        C  0.70679262  0.67838093  0.01750156    -0.09900
H755        H  0.76467314  0.74001189  0.97110625     0.08000
H756        H  0.78624541  0.70771458  0.97197709     0.11700
H757        H  0.70529220  0.63783248  0.03047501     0.11400
H758        H  0.68445270  0.66970134  0.02988578     0.08000
C759        C  0.80049694  0.42258562  0.01181331    -0.11100
C760        C  0.82913758  0.42724004  0.00962730     0.06000
C761        C  0.85267658  0.45599736  0.00305708    -0.09900
C762        C  0.84751022  0.47975052  0.00065463    -0.11500
C763        C  0.81870555  0.47491558  0.00420095    -0.01300
C764        C  0.79535615  0.44595518  0.00928618    -0.10400
C765        C  0.83331382  0.40150722  0.01505098     0.06100
H766        H  0.87497009  0.46011839  0.00092332     0.08000
H767        H  0.86595136  0.50177500  0.99632269     0.11400
H768        H  0.77283650  0.44113468  0.01183344     0.11700
H769        H  0.78184252  0.40062610  0.01564091     0.08000
C770        C  0.81707879  0.38047245  0.04998632    -0.11100
C771        C  0.81480415  0.35299007  0.04926134    -0.10400
C772        C  0.82910674  0.34597921  0.01408356    -0.01300
C773        C  0.84785806  0.36789523  0.98198138    -0.11500
C774        C  0.84986119  0.39556965  0.98232392    -0.09900
H775        H  0.80464609  0.38470004  0.07629513     0.08000
H776        H  0.80054234  0.33659132  0.07479967     0.11700
H777        H  0.85907615  0.36291174  0.95449782     0.11400
H778        H  0.86257926  0.41144274  0.95506879     0.08000
C779        C  0.57397427  0.37577351  0.03552282    -0.11100
C780        C  0.57081409  0.39927984  0.01933196     0.06000
C781        C  0.54364619  0.39345352  0.00058136    -0.09900
C782        C  0.52003081  0.36456334  0.99845582    -0.11500
C783        C  0.52342432  0.34111025  0.01449151    -0.01300
C784        C  0.55064412  0.34711173  0.03308471    -0.10400
C785        C  0.59664846  0.42932090  0.01997507     0.06100
H786        H  0.54071391  0.41119988  0.98762724     0.08000
H787        H  0.49937687  0.36052552  0.98346531     0.11400
H788        H  0.55404298  0.32957598  0.04565393     0.11700
H789        H  0.59482316  0.37945598  0.04905449     0.08000
C790        C  0.61596270  0.43843684  0.05888424    -0.11100
C791        C  0.64343065  0.46371439  0.05581963    -0.10400
C792        C  0.65177753  0.48072957  0.01432751    -0.01300
C793        C  0.63174588  0.47313150  0.97682299    -0.11500
C794        C  0.60427504  0.44748284  0.97959148    -0.09900
H795        H  0.61042048  0.42514901  0.09076823     0.08000
H796        H  0.65873139  0.46931659  0.08505189     0.11700
H797        H  0.63811208  0.48585608  0.94428124     0.11400
H798        H  0.58990103  0.44084212  0.94898045     0.08000
C799        C  0.47116352  0.38987578  0.25913214    -0.11100
C800        C  0.45046682  0.36025233  0.26796587     0.06000
C801        C  0.43779835  0.35208754  0.31340202    -0.09900
C802        C  0.44572710  0.37305027  0.34918975    -0.11500
C803        C  0.46624105  0.40266507  0.34014032    -0.01300
C804        C  0.47883020  0.41088632  0.29475041    -0.10400
C805        C  0.44268719  0.33790121  0.23022138     0.06100
H806        H  0.42150189  0.32952794  0.32119221     0.08000
H807        H  0.43547293  0.36614295  0.38375964     0.11400
H808        H  0.49494901  0.43351890  0.28695544     0.11700
H809        H  0.48180679  0.39677953  0.22486465     0.08000
C810        C  0.44021055  0.34444639  0.18256139    -0.11100
C811        C  0.43458669  0.32391669  0.14675166    -0.10400
C812        C  0.43124128  0.29636602  0.15790401    -0.01300
C813        C  0.43275096  0.28952979  0.20580109    -0.11500
C814        C  0.43849702  0.31005928  0.24145039    -0.09900
H815        H  0.44275792  0.36551940  0.17289637     0.08000
H816        H  0.43336661  0.32983913  0.11031142     0.11700
H817        H  0.43021014  0.26850520  0.21583206     0.11400
H818        H  0.44055806  0.30439351  0.27768216     0.08000
C819        C  0.45986765  0.35450852  0.82537258    -0.11100
C820        C  0.45450704  0.34638683  0.77720294     0.06000
C821        C  0.44094833  0.31648838  0.76540561    -0.09900
C822        C  0.43364600  0.29530821  0.80059797    -0.11500
C823        C  0.43937030  0.30338416  0.84866482    -0.01300
C824        C  0.45226072  0.33318685  0.86080027    -0.10400
C825        C  0.46278994  0.36875627  0.73912396     0.06100
H826        H  0.43580969  0.30934810  0.72886156     0.08000
H827        H  0.42359781  0.27251118  0.79001879     0.11400
H828        H  0.45730159  0.34010247  0.89746903     0.11700
H829        H  0.47058070  0.37738189  0.83563938     0.08000
C830        C  0.47299933  0.36498389  0.69499007    -0.11100
C831        C  0.47885048  0.38482483  0.65796137    -0.10400
C832        C  0.47506124  0.40913074  0.66444554    -0.01300
C833        C  0.46593764  0.41359186  0.70902291    -0.11500
C834        C  0.45969432  0.39351453  0.74589830    -0.09900
H835        H  0.47641373  0.34660710  0.68894890     0.08000
H836        H  0.48638585  0.38116000  0.62424999     0.11700
H837        H  0.46279211  0.43215690  0.71500298     0.11400
H838        H  0.45161800  0.39695174  0.77921581     0.08000
C839        C  0.63866893  0.54376109  0.30897796    -0.11100
C840        C  0.63173712  0.54809469  0.26246273     0.06000
C841        C  0.60334880  0.54325683  0.25335150    -0.09900
C842        C  0.58234969  0.53383089  0.28949832    -0.11500
C843        C  0.58934864  0.52944147  0.33585915    -0.01300
C844        C  0.61780568  0.53471805  0.34522545    -0.10400
C845        C  0.65366213  0.55649177  0.22341341     0.06100
H846        H  0.59732476  0.54692023  0.21830827     0.08000
H847        H  0.56072545  0.53032721  0.28118956     0.11400
H848        H  0.62389530  0.53146240  0.38051431     0.11700
H849        H  0.66003224  0.54665749  0.31734468     0.08000
C850        C  0.68389640  0.57441234  0.23241222    -0.11100
C851        C  0.70451149  0.58014329  0.19666952    -0.10400
C852        C  0.69540403  0.56871716  0.15078107    -0.01300
C853        C  0.66526792  0.55188700  0.14108008    -0.11500
C854        C  0.64463852  0.54558231  0.17709425    -0.09900
H855        H  0.69173348  0.58381011  0.26721499     0.08000
H856        H  0.72765874  0.59333200  0.20501643     0.11700
H857        H  0.65768754  0.54242852  0.10620646     0.11400
H858        H  0.62166102  0.53122853  0.16891311     0.08000
C859        C  0.60197085  0.52829449  0.74279224    -0.11100
C860        C  0.63209724  0.54381081  0.73209705     0.06000
C861        C  0.64091199  0.55111848  0.68454759    -0.09900
C862        C  0.62014239  0.54267363  0.64838936    -0.11500
C863        C  0.59001407  0.52699131  0.65894993    -0.01300
C864        C  0.58112831  0.52003104  0.70658713    -0.10400
C865        C  0.65440489  0.55144041  0.76988321     0.06100
H866        H  0.66396067  0.56353893  0.67524476     0.08000
H867        H  0.62775325  0.54873787  0.61217727     0.11400
H868        H  0.55806167  0.50794789  0.71589755     0.11700
H869        H  0.59450342  0.52201631  0.77900591     0.08000
C870        C  0.67920974  0.54881966  0.76097809    -0.11100
C871        C  0.70029408  0.55561498  0.79602213    -0.10400
C872        C  0.69703786  0.56491833  0.84126909    -0.01300
C873        C  0.67226717  0.56768063  0.85032483    -0.11500
C874        C  0.65114503  0.56103434  0.81489400    -0.09900
H875        H  0.68206952  0.54087467  0.72709177     0.08000
H876        H  0.71884009  0.55281514  0.78782097     0.11700
H877        H  0.66911906  0.57478479  0.88478581     0.11400
H878        H  0.63236279  0.56352854  0.82262064     0.08000
C879        C  0.53299236  0.60138791  0.24987569    -0.11100
C880        C  0.55058913  0.63140640  0.26043474     0.06000
C881        C  0.55948871  0.63972087  0.30767179    -0.09900
C882        C  0.54993278  0.61874823  0.34383933    -0.11500
C883        C  0.53143812  0.58881919  0.33370539    -0.01300
C884        C  0.52358094  0.58029639  0.28612601    -0.10400
C885        C  0.55805250  0.65422772  0.22329630     0.06100
H886        H  0.57363914  0.66259726  0.31680279     0.08000
H887        H  0.55702476  0.62605528  0.37986061     0.11400
H888        H  0.50958731  0.55739083  0.27701620     0.11700
H889        H  0.52565417  0.59428151  0.21387596     0.08000
C890        C  0.56581901  0.65084379  0.17689561    -0.11100
C891        C  0.57177369  0.67224610  0.14209712    -0.10400
C892        C  0.57006216  0.69742991  0.15308046    -0.01300
C893        C  0.56258401  0.70079234  0.19964960    -0.11500
C894        C  0.55659327  0.67949213  0.23413710    -0.09900
H895        H  0.56731364  0.63169025  0.16755588     0.08000
H896        H  0.57742651  0.66893346  0.10656954     0.11700
H897        H  0.56059437  0.71961181  0.20938562     0.11400
H898        H  0.55004722  0.68249713  0.26917284     0.08000
C899        C  0.55369436  0.64774485  0.81928850    -0.11100
C900        C  0.55708198  0.65610555  0.77104526     0.06000
C901        C  0.56866958  0.68600187  0.76012585    -0.09900
C902        C  0.57487620  0.70657007  0.79598681    -0.11500
C903        C  0.57014617  0.69796922  0.84395363    -0.01300
C904        C  0.56035102  0.66848214  0.85531954    -0.10400
C905        C  0.54758605  0.63381431  0.73220335     0.06100
H906        H  0.57264438  0.69360493  0.72369633     0.08000
H907        H  0.58283458  0.72920492  0.78594932     0.11400
H908        H  0.55645971  0.66113715  0.89192913     0.11700
H909        H  0.54470185  0.62498516  0.82937210     0.08000
C910        C  0.54922859  0.60810460  0.73777079    -0.11100
C911        C  0.53967496  0.58706299  0.70164775    -0.10400
C912        C  0.52869114  0.59135723  0.65861386    -0.01300
C913        C  0.52731848  0.61711195  0.65270673    -0.11500
C914        C  0.53630174  0.63787871  0.68918925    -0.09900
H915        H  0.55826035  0.60431799  0.76977435     0.08000
H916        H  0.54144220  0.56762811  0.70710122     0.11700
H917        H  0.51885868  0.62101448  0.62011229     0.11400
H918        H  0.53391497  0.65693049  0.68376232     0.08000
C919        C  0.34903930  0.44505524  0.17655892    -0.11100
C920        C  0.33949254  0.43720450  0.22379046     0.06000
C921        C  0.30925467  0.42323008  0.23349854    -0.09900
C922        C  0.28924537  0.41885115  0.19749962    -0.11500
C923        C  0.29894309  0.42800385  0.15079491    -0.01300
C924        C  0.32893470  0.44038992  0.14036665    -0.10400
C925        C  0.36101571  0.44523391  0.26319245     0.06100
H926        H  0.30106591  0.41615041  0.26918321     0.08000
H927        H  0.26616765  0.40871650  0.20642965     0.11400
H928        H  0.33702138  0.44767232  0.10467712     0.11700
H929        H  0.37217678  0.45602542  0.16784637     0.08000
C930        C  0.38697412  0.44418110  0.25712305    -0.11100
C931        C  0.40777433  0.45320877  0.29355621    -0.10400
C932        C  0.40296439  0.46321412  0.33706813    -0.01300
C933        C  0.37686780  0.46390514  0.34340725    -0.11500
C934        C  0.35622081  0.45517777  0.30681972    -0.09900
H935        H  0.39117080  0.43624696  0.22428696     0.08000
H936        H  0.42751237  0.45203945  0.28783728     0.11700
H937        H  0.37263400  0.47169241  0.37638260     0.11400
H938        H  0.33677485  0.45687333  0.31239926     0.08000
C939        C  0.35463875  0.44639996  0.68520282    -0.11100
C940        C  0.36296340  0.45090678  0.73322282     0.06000
C941        C  0.39289085  0.46395304  0.74484998    -0.09900
C942        C  0.41404313  0.47267472  0.70903760    -0.11500
C943        C  0.40563907  0.46872082  0.66094316    -0.01300
C944        C  0.37569017  0.45538461  0.64955137    -0.10400
C945        C  0.34044064  0.44319689  0.77056600     0.06100
H946        H  0.40002199  0.46801727  0.78151986     0.08000
H947        H  0.43694250  0.48270116  0.71904238     0.11400
H948        H  0.36836242  0.45158891  0.61296614     0.11700
H949        H  0.33173658  0.43580585  0.67503474     0.08000
C950        C  0.31678976  0.44784999  0.76225128    -0.11100
C951        C  0.29575070  0.44138452  0.79710193    -0.10400
C952        C  0.29806090  0.43061312  0.84164134    -0.01300
C953        C  0.32154186  0.42569633  0.85012532    -0.11500
C954        C  0.34249165  0.43177744  0.81472174    -0.09900
H955        H  0.31487044  0.45724930  0.72913559     0.08000
H956        H  0.27814045  0.44578504  0.78950523     0.11700
H957        H  0.32375786  0.41727944  0.88406159     0.11400
H958        H  0.36025642  0.42755948  0.82189088     0.08000
C959        C  0.92021587  0.52497628  0.25518597    -0.11100
C960        C  0.90601496  0.54086401  0.26591562     0.06000
C961        C  0.90574788  0.54921605  0.31325041    -0.09900
C962        C  0.91894382  0.54153893  0.34905337    -0.11500
C963        C  0.93311697  0.52569307  0.33830497    -0.01300
C964        C  0.93380343  0.51764127  0.29097237    -0.10400
C965        C  0.89139002  0.54868337  0.22819087     0.06100
H966        H  0.89566792  0.56207859  0.32268565     0.08000
H967        H  0.91842182  0.54844135  0.38508458     0.11400
H968        H  0.94453304  0.50535463  0.28163715     0.11700
H969        H  0.92048723  0.51781547  0.21927428     0.08000
C970        C  0.90323362  0.55609962  0.18209673    -0.11100
C971        C  0.88944553  0.56376346  0.14700900    -0.10400
C972        C  0.86369003  0.56443182  0.15742954    -0.01300
C973        C  0.85196384  0.55710644  0.20357230    -0.11500
C974        C  0.86546701  0.54908210  0.23830558    -0.09900
H975        H  0.92334598  0.55632265  0.17320004     0.08000
H976        H  0.89890231  0.56906005  0.11173186     0.11700
H977        H  0.83182688  0.55679654  0.21272100     0.11400
H978        H  0.85525117  0.54273214  0.27295816     0.08000
C979        C  0.87598440  0.55864084  0.76474409    -0.11100
C980        C  0.89266340  0.54530449  0.77560039     0.06000
C981        C  0.89563287  0.53959847  0.82364361    -0.09900
C982        C  0.88172619  0.54652668  0.85968338    -0.11500
C983        C  0.86433783  0.55902405  0.84832420    -0.01300
C984        C  0.86192119  0.56523681  0.80049904    -0.10400
C985        C  0.90652562  0.53721665  0.73673021     0.06100
H986        H  0.90804240  0.52905889  0.83336063     0.08000
H987        H  0.88381706  0.54125817  0.89616600     0.11400
H988        H  0.84897272  0.57517275  0.79052101     0.11700
H989        H  0.87380178  0.56413424  0.72847580     0.08000
C990        C  0.89246021  0.52758714  0.69242289    -0.11100
C991        C  0.90559952  0.52047451  0.65562473    -0.10400
C992        C  0.93289401  0.52229503  0.66241712    -0.01300
C993        C  0.94691167  0.53170557  0.70667516    -0.11500
C994        C  0.93398038  0.53925770  0.74327296    -0.09900
H995        H  0.87107077  0.52519475  0.68620032     0.08000
H996        H  0.89421403  0.51322562  0.62197888     0.11700
H997        H  0.96821261  0.53381716  0.71273981     0.11400
H998        H  0.94576823  0.54717106  0.77642887     0.08000
C999        C  0.89817049  0.36183272  0.30165603    -0.11100
C1000       C  0.91055794  0.36858606  0.25589865     0.06000
C1001       C  0.93548686  0.39620849  0.24783788    -0.09900
C1002       C  0.94803922  0.41637980  0.28496362    -0.11500
C1003       C  0.93601138  0.40928848  0.33099045    -0.01300
C1004       C  0.91082105  0.38186294  0.33879728    -0.10400
C1005       C  0.89752521  0.34659552  0.21717657     0.06100
H1006       H  0.94568253  0.40197868  0.21311010     0.08000
H1007       H  0.96755037  0.43729153  0.27780861     0.11400
H1008       H  0.90081508  0.37585497  0.37365198     0.11700
H1009       H  0.87855504  0.34101285  0.30877533     0.08000
C1010       C  0.88668536  0.31670743  0.22697458    -0.11100
C1011       C  0.87244657  0.29557025  0.19187240    -0.10400
C1012       C  0.86920577  0.30385671  0.14590455    -0.01300
C1013       C  0.88103774  0.33378450  0.13529728    -0.11500
C1014       C  0.89497995  0.35499063  0.17071541    -0.09900
H1015       H  0.88896200  0.30959403  0.26203645     0.08000
H1016       H  0.86372395  0.27264329  0.20077300     0.11700
H1017       H  0.87845129  0.34065914  0.10019165     0.11400
H1018       H  0.90287834  0.37781145  0.16214651     0.08000
C1019       C  0.87516623  0.31229093  0.75514920    -0.11100
C1020       C  0.90184807  0.33770986  0.76576482     0.06000
C1021       C  0.91236689  0.34229760  0.81272938    -0.09900
C1022       C  0.89608708  0.32226432  0.84854999    -0.11500
C1023       C  0.86908346  0.29715386  0.83799087    -0.01300
C1024       C  0.85901157  0.29226120  0.79075311    -0.10400
C1025       C  0.91737799  0.36017378  0.72845841     0.06100
H1026       H  0.93305425  0.36152832  0.82186927     0.08000
H1027       H  0.90449695  0.32661537  0.88452136     0.11400
H1028       H  0.83819457  0.27328173  0.78128808     0.11700
H1029       H  0.86615732  0.30835936  0.71957616     0.08000
C1030       C  0.91812792  0.35185829  0.68127422    -0.11100
C1031       C  0.93006676  0.37296553  0.64533810    -0.10400
C1032       C  0.94169623  0.40284692  0.65590787    -0.01300
C1033       C  0.94185182  0.41122026  0.70333320    -0.11500
C1034       C  0.92973646  0.39011570  0.73915984    -0.09900
H1035       H  0.90921985  0.32898118  0.67204653     0.08000
H1036       H  0.93007587  0.36585537  0.60926978     0.11700
H1037       H  0.95066550  0.43406773  0.71269445     0.11400
H1038       H  0.92910236  0.39721554  0.77498339     0.08000
C1039       C  0.12556813  0.44287305  0.23512445    -0.11100
C1040       C  0.10192676  0.44705307  0.22387733     0.06000
C1041       C  0.09200783  0.44313693  0.17654844    -0.09900
C1042       C  0.10590559  0.43580167  0.14120148    -0.11500
C1043       C  0.12979311  0.43199959  0.15268014    -0.01300
C1044       C  0.13914906  0.43526990  0.20016876    -0.10400
C1045       C  0.08835223  0.45604199  0.26160803     0.06100
H1046       H  0.07357400  0.44579213  0.16678345     0.08000
H1047       H  0.09825475  0.43358280  0.10490244     0.11400
H1048       H  0.15760913  0.43275691  0.21041384     0.11700
H1049       H  0.13428744  0.44631837  0.27084166     0.08000
C1050       C  0.08627295  0.44563181  0.30828999    -0.11100
C1051       C  0.07481609  0.45491841  0.34443141    -0.10400
C1052       C  0.06448320  0.47431743  0.33468672    -0.01300
C1053       C  0.06630309  0.48467937  0.28809655    -0.11500
C1054       C  0.07833311  0.47578531  0.25192946    -0.09900
H1055       H  0.09315814  0.42994598  0.31696774     0.08000
H1056       H  0.07330732  0.44622020  0.37987322     0.11700
H1057       H  0.05863159  0.49979934  0.27972665     0.11400
H1058       H  0.08015403  0.48469910  0.21660630     0.08000
C1059       C  0.09717921  0.45543793  0.68591507    -0.11100
C1060       C  0.08508053  0.45016911  0.73191202     0.06000
C1061       C  0.05991286  0.45237259  0.73982070    -0.09900
C1062       C  0.04749496  0.46021773  0.70290952    -0.11500
C1063       C  0.05983812  0.46584964  0.65713782    -0.01300
C1064       C  0.08456855  0.46297691  0.64885990    -0.10400
C1065       C  0.09893621  0.44276398  0.77145722     0.06100
H1066       H  0.04966167  0.44785913  0.77449060     0.08000
H1067       H  0.02812653  0.46178060  0.71027002     0.11400
H1068       H  0.09458826  0.46717936  0.61400257     0.11700
H1069       H  0.11683042  0.45439684  0.67866691     0.08000
C1070       C  0.11189805  0.42549439  0.76290781    -0.11100
C1071       C  0.12655089  0.41996067  0.79907836    -0.10400
C1072       C  0.12816515  0.43109515  0.84490619    -0.01300
C1073       C  0.11437834  0.44750760  0.85419845    -0.11500
C1074       C  0.10005381  0.45346873  0.81769113    -0.09900
H1075       H  0.11084852  0.41629365  0.72812528     0.08000
H1076       H  0.13680655  0.40703739  0.79110380     0.11700
H1077       H  0.11565893  0.45666755  0.88913641     0.11400
H1078       H  0.09067093  0.46720339  0.82537421     0.08000
C1079       C  0.09351015  0.65128418  0.18115307    -0.11100
C1080       C  0.10560666  0.65550975  0.22700563     0.06000
C1081       C  0.13316230  0.68017621  0.23588927    -0.09900
C1082       C  0.14833707  0.70022348  0.19984611    -0.11500
C1083       C  0.13639918  0.69606902  0.15388165    -0.01300
C1084       C  0.10883086  0.67133601  0.14481789    -0.10400
C1085       C  0.09018765  0.63384883  0.26524875     0.06100
H1086       H  0.14333204  0.68370238  0.27053703     0.08000
H1087       H  0.16967346  0.71886264  0.20803884     0.11400
H1088       H  0.09902596  0.66758093  0.10984199     0.11700
H1089       H  0.07213738  0.63256681  0.17346396     0.08000
C1090       C  0.09072929  0.64313428  0.31221346    -0.11100
C1091       C  0.07748733  0.62262672  0.34864096    -0.10400
C1092       C  0.06316391  0.59243443  0.33871094    -0.01300
C1093       C  0.06241462  0.58317994  0.29168948    -0.11500
C1094       C  0.07585657  0.60367989  0.25537236    -0.09900
H1095       H  0.10129199  0.66627317  0.32077071     0.08000
H1096       H  0.07819380  0.63042919  0.38445730     0.11700
H1097       H  0.05172517  0.56005543  0.28296494     0.11400
H1098       H  0.07556907  0.59589381  0.21970052     0.08000
C1099       C  0.07317662  0.60134746  0.74473071    -0.11100
C1100       C  0.08323522  0.63120669  0.73611786     0.06000
C1101       C  0.07941805  0.63990226  0.69069160    -0.09900
C1102       C  0.06685155  0.61939105  0.65418376    -0.11500
C1103       C  0.05751078  0.58964014  0.66237820    -0.01300
C1104       C  0.06034523  0.58074254  0.70825562    -0.10400
C1105       C  0.09914728  0.65349291  0.77341730     0.06100
H1106       H  0.08638638  0.66267086  0.68326794     0.08000
H1107       H  0.06444679  0.62685764  0.61948251     0.11400
H1108       H  0.05331662  0.55796359  0.71568294     0.11700
H1109       H  0.07607310  0.59404774  0.77925198     0.08000
C1110       C  0.08990445  0.64826963  0.82107122    -0.11100
C1111       C  0.10558158  0.66928940  0.85599793    -0.10400
C1112       C  0.13078421  0.69591737  0.84387279    -0.01300
C1113       C  0.13997663  0.70097665  0.79615032    -0.11500
C1114       C  0.12438095  0.68004556  0.76145090    -0.09900
H1115       H  0.07045734  0.62801472  0.83127036     0.08000
H1116       H  0.09802152  0.66464091  0.89243229     0.11700
H1117       H  0.15954589  0.72099890  0.78548126     0.11400
H1118       H  0.13246380  0.68442844  0.72527368     0.08000
C1119       C  0.35658932  0.91828055  0.30582064    -0.11100
C1120       C  0.36465300  0.91477188  0.25973383     0.06000
C1121       C  0.39419163  0.92333865  0.25079385    -0.09900
C1122       C  0.41509590  0.93512972  0.28707208    -0.11500
C1123       C  0.40675824  0.93801758  0.33322213    -0.01300
C1124       C  0.37730897  0.92945471  0.34218207    -0.10400
C1125       C  0.34207519  0.90110223  0.22187294     0.06100
H1126       H  0.40111084  0.92042151  0.21603011     0.08000
H1127       H  0.43766914  0.94152031  0.27921072     0.11400
H1128       H  0.37033191  0.93189857  0.37722815     0.11700
H1129       H  0.33425132  0.91260352  0.31390263     0.08000
C1130       C  0.31361237  0.87863862  0.23343688    -0.11100
C1131       C  0.29276891  0.86436328  0.19810886    -0.10400
C1132       C  0.29987553  0.87174319  0.15000155    -0.01300
C1133       C  0.32798417  0.89485964  0.13829929    -0.11500
C1134       C  0.34884892  0.90948907  0.17393993    -0.09900
H1135       H  0.30760391  0.87117139  0.26970026     0.08000
H1136       H  0.27131572  0.84672335  0.20862477     0.11700
H1137       H  0.33412595  0.90112740  0.10161053     0.11400
H1138       H  0.37036988  0.92713580  0.16385413     0.08000
C1139       C  0.38791595  0.93914691  0.73725145    -0.11100
C1140       C  0.36086646  0.91340081  0.72950515     0.06000
C1141       C  0.35540366  0.89980922  0.68470845    -0.09900
C1142       C  0.37639662  0.91171789  0.64860920    -0.11500
C1143       C  0.40350618  0.93723765  0.65668024    -0.01300
C1144       C  0.40905315  0.95080058  0.70139677    -0.10400
C1145       C  0.33878846  0.90033303  0.76829692     0.06100
H1146       H  0.33510651  0.87963341  0.67768147     0.08000
H1147       H  0.37155316  0.90070402  0.61457039     0.11400
H1148       H  0.42958559  0.97075397  0.70848670     0.11700
H1149       H  0.39270621  0.95054998  0.77089697     0.08000
C1150       C  0.34779517  0.90157141  0.81572596    -0.11100
C1151       C  0.32715712  0.88760791  0.85176564    -0.10400
C1152       C  0.29706966  0.87163089  0.84109813    -0.01300
C1153       C  0.28792118  0.87125107  0.79410818    -0.11500
C1154       C  0.30854238  0.88561397  0.75815283    -0.09900
H1155       H  0.37085075  0.91229652  0.82489232     0.08000
H1156       H  0.33487327  0.88803994  0.88760114     0.11700
H1157       H  0.26482211  0.85933383  0.78496956     0.11400
H1158       H  0.30075465  0.88484140  0.72229639     0.08000
C1159       C  0.57395587  0.88736650  0.23270889    -0.11100
C1160       C  0.55511415  0.89848313  0.22300283     0.06000
C1161       C  0.54408857  0.89588719  0.17667533    -0.09900
C1162       C  0.55080138  0.88152759  0.14145372    -0.11500
C1163       C  0.56838185  0.86911375  0.15189048    -0.01300
C1164       C  0.58033773  0.87262800  0.19761938    -0.10400
C1165       C  0.54583384  0.91140106  0.26151613     0.06100
H1166       H  0.52926866  0.90387359  0.16805414     0.08000
H1167       H  0.54105524  0.87892061  0.10660540     0.11400
H1168       H  0.59423680  0.86356891  0.20644998     0.11700
H1169       H  0.58340158  0.88964324  0.26770295     0.08000
C1170       C  0.53999181  0.89911113  0.30738229    -0.11100
C1171       C  0.53080192  0.91081041  0.34357229    -0.10400
C1172       C  0.52703917  0.93499561  0.33474669    -0.01300
C1173       C  0.53256045  0.94710848  0.28870047    -0.11500
C1174       C  0.54192917  0.93551010  0.25258323    -0.09900
H1175       H  0.54213320  0.88012805  0.31522683     0.08000
H1176       H  0.52659060  0.90083722  0.37848423     0.11700
H1177       H  0.53014630  0.96592154  0.28067120     0.11400
H1178       H  0.54650998  0.94570314  0.21782056     0.08000
C1179       C  0.52587737  0.92312366  0.74428368    -0.11100
C1180       C  0.54331680  0.91044474  0.73456604     0.06000
C1181       C  0.55240029  0.91068437  0.68750227    -0.09900
C1182       C  0.54384956  0.92270696  0.65097089    -0.11500
C1183       C  0.52645780  0.93537030  0.66059366    -0.01300
C1184       C  0.51764291  0.93557584  0.70770933    -0.10400
C1185       C  0.55093016  0.89571167  0.77257108     0.06100
H1186       H  0.56633766  0.90169168  0.67877084     0.08000
H1187       H  0.55128364  0.92245899  0.61520859     0.11400
H1188       H  0.50409544  0.94505866  0.71626616     0.11700
H1189       H  0.51807071  0.92289092  0.77993472     0.08000
C1190       C  0.55162521  0.87001072  0.76206428    -0.11100
C1191       C  0.55778308  0.85528466  0.79722136    -0.10400
C1192       C  0.56303345  0.86550378  0.84431388    -0.01300
C1193       C  0.56285754  0.89151709  0.85499539    -0.11500
C1194       C  0.55691454  0.90651712  0.81941318    -0.09900
H1195       H  0.54656760  0.86064792  0.72676515     0.08000
H1196       H  0.55766237  0.83533819  0.78745139     0.11700
H1197       H  0.56695155  0.90008151  0.89084723     0.11400
H1198       H  0.55698661  0.92651788  0.82857760     0.08000
C1199       C  0.60304113  0.07880171  0.25525969    -0.11100
C1200       C  0.63303029  0.08983994  0.26445414     0.06000
C1201       C  0.64179816  0.08767952  0.31077476    -0.09900
C1202       C  0.62117238  0.07504136  0.34711249    -0.11500
C1203       C  0.59121504  0.06379427  0.33784155    -0.01300
C1204       C  0.58231849  0.06578460  0.29155739    -0.10400
C1205       C  0.65530402  0.10440878  0.22645285     0.06100
H1206       H  0.66464446  0.09548584  0.31891971     0.08000
H1207       H  0.62865685  0.07352496  0.38229632     0.11400
H1208       H  0.55936052  0.05748111  0.28347492     0.11700
H1209       H  0.59562411  0.08061497  0.22020095     0.08000
C1210       C  0.64969778  0.09401630  0.17941673    -0.11100
C1211       C  0.67069374  0.10849788  0.14379161    -0.10400
C1212       C  0.69776427  0.13356646  0.15458777    -0.01300
C1213       C  0.70338769  0.14356924  0.20179943    -0.11500
C1214       C  0.68242333  0.12929264  0.23712217    -0.09900
H1215       H  0.62914148  0.07464966  0.17017562     0.08000
H1216       H  0.66563678  0.10018391  0.10782079     0.11700
H1217       H  0.72383312  0.16292499  0.21150870     0.11400
H1218       H  0.68726732  0.13824899  0.27270967     0.08000
C1219       C  0.68105791  0.11961030  0.76284185    -0.11100
C1220       C  0.65111634  0.10378218  0.77460283     0.06000
C1221       C  0.64287850  0.10119139  0.82268895    -0.09900
C1222       C  0.66414518  0.11481289  0.85812070    -0.11500
C1223       C  0.69399707  0.13143984  0.84602263    -0.01300
C1224       C  0.70222601  0.13329399  0.79808142    -0.10400
C1225       C  0.62875203  0.08993968  0.73660462     0.06100
H1226       H  0.61994766  0.08929528  0.83280247     0.08000
H1227       H  0.65715062  0.11324098  0.89470716     0.11400
H1228       H  0.72509471  0.14570907  0.78763442     0.11700
H1229       H  0.68816452  0.12142127  0.72628632     0.08000
C1230       C  0.63210487  0.10452866  0.69313373    -0.11100
C1231       C  0.61207632  0.09078878  0.65621844    -0.10400
C1232       C  0.58804749  0.06234403  0.66222279    -0.01300
C1233       C  0.58418101  0.04808209  0.70610289    -0.11500
C1234       C  0.60440502  0.06169022  0.74284890    -0.09900
H1235       H  0.65028247  0.12657723  0.68761388     0.08000
H1236       H  0.61529783  0.10246779  0.62302677     0.11700
H1237       H  0.56591148  0.02607666  0.71160057     0.11400
H1238       H  0.60140474  0.04977749  0.77570178     0.08000
C1239       C  0.44861244  0.05551305  0.25434156    -0.11100
C1240       C  0.44579592  0.08042099  0.26133525     0.06000
C1241       C  0.45428220  0.09495543  0.30541928    -0.09900
C1242       C  0.46499148  0.08466401  0.34161134    -0.11500
C1243       C  0.46795154  0.05989633  0.33432242    -0.01300
C1244       C  0.45976404  0.04552941  0.29021964    -0.10400
C1245       C  0.43501761  0.09181756  0.22245080     0.06100
H1246       H  0.45310309  0.11459838  0.31188641     0.08000
H1247       H  0.47109572  0.09620249  0.37521218     0.11400
H1248       H  0.46126999  0.02605050  0.28373643     0.11700
H1249       H  0.44180906  0.04338127  0.22136019     0.08000
C1250       C  0.44182242  0.08993611  0.17468520    -0.11100
C1251       C  0.43458036  0.10356247  0.13878996    -0.10400
C1252       C  0.42085103  0.11979947  0.14998025    -0.01300
C1253       C  0.41237357  0.12012333  0.19714543    -0.11500
C1254       C  0.41915313  0.10609006  0.23289318    -0.09900
H1255       H  0.45415495  0.07931856  0.16511619     0.08000
H1256       H  0.44143852  0.10294300  0.10275038     0.11700
H1257       H  0.40134274  0.13208134  0.20672370     0.11400
H1258       H  0.41258104  0.10709976  0.26893163     0.08000
C1259       C  0.44563608  0.08966104  0.68308819    -0.11100
C1260       C  0.45064760  0.08557015  0.73080633     0.06000
C1261       C  0.46240885  0.06748788  0.74142786    -0.09900
C1262       C  0.46970725  0.05432825  0.70506861    -0.11500
C1263       C  0.46550229  0.05905063  0.65722428    -0.01300
C1264       C  0.45299842  0.07655580  0.64665354    -0.10400
C1265       C  0.44490699  0.10118896  0.76924254     0.06100
H1266       H  0.46677524  0.06419373  0.77783626     0.08000
H1267       H  0.47915937  0.04087209  0.71453653     0.11400
H1268       H  0.44909836  0.08034940  0.61023979     0.11700
H1269       H  0.43613351  0.10312587  0.67394325     0.08000
C1270       C  0.43219944  0.08711064  0.81248094    -0.11100
C1271       C  0.42752719  0.10233553  0.84896457    -0.10400
C1272       C  0.43536797  0.13185086  0.84266915    -0.01300
C1273       C  0.44820865  0.14585819  0.79942630    -0.11500
C1274       C  0.45295318  0.13073556  0.76323575    -0.09900
H1275       H  0.42563083  0.06425564  0.81788344     0.08000
H1276       H  0.41753814  0.09095863  0.88179804     0.11700
H1277       H  0.45493938  0.16872611  0.79358803     0.11400
H1278       H  0.46339262  0.14234494  0.73076123     0.08000
loop_ 
_geom_bond_atom_site_label_1 
_geom_bond_atom_site_label_2 
_geom_bond_distance 
_geom_bond_site_symmetry_2 
_ccdc_geom_bond_type 
O1          Zr13   2.439       .  S
O1            C3   1.288       .  A
O2          Zr39   2.412   1_545  S
O2            C3   1.285       .  A
C3         C1263   1.480       .  S
O4          Zr16   2.442       .  S
O4            C6   1.288       .  A
O5          Zr40   2.416       .  S
O5            C6   1.285       .  A
C6         C1123   1.476       .  S
O7          Zr16   2.442       .  S
O7            C9   1.288       .  A
O8          Zr39   2.413       .  S
O8            C9   1.285       .  A
C9         C1143   1.478       .  S
O10         Zr13   2.446       .  S
O10          C12   1.289       .  A
O11         Zr40   2.413   1_545  S
O11          C12   1.285       .  A
C12        C1243   1.479       .  S
Zr13         O14   2.432       .  S
Zr13         O15   2.435       .  S
Zr13         O19   2.372   1_545  S
Zr13         O20   2.370   1_545  S
Zr13         O43   2.369       .  S
Zr13         O45   2.368       .  S
O14          H57   0.990       .  S
O15          H56   0.990       .  S
O15          H60   0.990       .  S
Zr16         O17   2.435       .  S
Zr16         O18   2.435       .  S
Zr16         O20   2.368       .  S
Zr16         O19   2.370       .  S
Zr16         O44   2.372       .  S
Zr16         O46   2.373       .  S
O17          H58   0.990       .  S
O17          H61   0.990       .  S
O18          H51   0.990       .  S
O19         Zr39   2.373       .  S
O20         Zr40   2.379       .  S
O20          H47   0.965       .  S
O21         Zr33   2.440       .  S
O21          C23   1.289       .  A
O22         Zr40   2.412   1_545  S
O22          C23   1.285       .  A
C23        C1203   1.476       .  S
O24         Zr36   2.449       .  S
O24          C26   1.290       .  A
O25         Zr39   2.408       .  S
O25          C26   1.284       .  A
C26        C1183   1.480       .  S
O27         Zr36   2.458       .  S
O27          C29   1.292       .  A
O28         Zr40   2.411       .  S
O28          C29   1.285       .  A
C29        C1172   1.484       .  S
O30         Zr33   2.448       .  S
O30          C32   1.289       .  A
O31         Zr39   2.418   1_545  S
O31          C32   1.285       .  A
C32        C1232   1.478       .  S
Zr33         O34   2.437       .  S
Zr33         O35   2.433       .  S
Zr33         O41   2.373   1_545  S
Zr33         O42   2.370   1_545  S
Zr33         O45   2.370       .  S
Zr33         O43   2.376       .  S
O34          H54   0.990       .  S
O34          H59   0.990       .  S
O35          H55   0.990       .  S
Zr36         O37   2.433       .  S
Zr36         O38   2.435       .  S
Zr36         O42   2.375       .  S
Zr36         O41   2.372       .  S
Zr36         O46   2.374       .  S
Zr36         O44   2.372       .  S
O37          H53   0.990       .  S
O38          H52   0.990       .  S
O38          H62   0.990       .  S
Zr39         O42   2.377       .  S
Zr39         O44   2.385       .  S
Zr39         O45   2.379   1_565  S
Zr40         O41   2.383       .  S
Zr40         O43   2.380   1_565  S
Zr40         O46   2.382       .  S
O41          H49   0.966       .  S
O44          H48   0.967       .  S
O45          H50   0.967       .  S
O63         Zr75   2.442       .  S
O63          C65   1.289       .  A
O64        Zr101   2.422   1_455  S
O64          C65   1.286       .  A
C65        C1103   1.480       .  S
O66         Zr78   2.438       .  S
O66          C68   1.288       .  A
O67        Zr102   2.407       .  S
O67          C68   1.284       .  A
C68         C963   1.474       .  S
O69         Zr78   2.448       .  S
O69          C71   1.289       .  A
O70        Zr101   2.416       .  S
O70          C71   1.285       .  A
C71         C992   1.482       .  S
O72         Zr75   2.437       .  S
O72          C74   1.287       .  A
O73        Zr102   2.407   1_455  S
O73          C74   1.284       .  A
C74        C1092   1.475       .  S
Zr75         O76   2.433       .  S
Zr75         O77   2.435       .  S
Zr75         O81   2.373   1_455  S
Zr75         O82   2.369   1_455  S
Zr75        O105   2.373       .  S
Zr75        O107   2.371       .  S
O76         H119   0.990       .  S
O77         H118   0.990       .  S
O77         H122   0.990       .  S
Zr78         O79   2.434       .  S
Zr78         O80   2.435       .  S
Zr78         O82   2.376       .  S
Zr78         O81   2.369       .  S
Zr78        O106   2.372       .  S
Zr78        O108   2.375       .  S
O79         H120   0.990       .  S
O79         H123   0.990       .  S
O80         H113   0.989       .  S
O81        Zr101   2.373       .  S
O82        Zr102   2.383       .  S
O82         H109   0.966       .  S
O83         Zr95   2.436       .  S
O83          C85   1.287       .  A
O84        Zr102   2.419   1_455  S
O84          C85   1.285       .  A
C85        C1052   1.474       .  S
O86         Zr98   2.445       .  S
O86          C88   1.289       .  A
O87        Zr101   2.408       .  S
O87          C88   1.284       .  A
C88        C1032   1.478       .  S
O89         Zr98   2.451       .  S
O89          C91   1.290       .  A
O90        Zr102   2.410       .  S
O90          C91   1.284       .  A
C91        C1003   1.481       .  S
O92         Zr95   2.439       .  S
O92          C94   1.288       .  A
O93        Zr101   2.406   1_455  S
O93          C94   1.284       .  A
C94        C1063   1.476       .  S
Zr95         O96   2.436       .  S
Zr95         O97   2.434       .  S
Zr95        O103   2.373       .  S
Zr95        O104   2.365       .  S
Zr95        O107   2.372       .  S
Zr95        O105   2.369       .  S
O96         H116   0.990       .  S
O96         H121   0.990       .  S
O97         H117   0.990       .  S
Zr98         O99   2.434       .  S
Zr98        O100   2.435       .  S
Zr98        O104   2.369   1_655  S
Zr98        O103   2.367   1_655  S
Zr98        O108   2.370       .  S
Zr98        O106   2.378       .  S
O99         H115   0.990       .  S
O100        H114   0.990       .  S
O100        H124   0.990       .  S
Zr101       O104   2.374   1_655  S
Zr101       O106   2.387       .  S
Zr101       O107   2.381   1_655  S
Zr102       O103   2.377   1_655  S
Zr102       O105   2.377   1_655  S
Zr102       O108   2.383       .  S
O103        H111   0.966       .  S
O106        H110   0.967       .  S
O107        H112   0.967       .  S
O125       Zr137   2.464       .  S
O125        C127   1.293       .  A
O126       Zr163   2.416       .  S
O126        C127   1.285       .  A
C127        C912   1.485       .  S
O128       Zr140   2.450       .  S
O128        C130   1.290       .  A
O129       Zr164   2.417       .  S
O129        C130   1.285       .  A
C130        C932   1.481       .  S
O131       Zr140   2.440       .  S
O131        C133   1.289       .  A
O132       Zr163   2.410       .  S
O132        C133   1.284       .  A
C133        C943   1.478       .  S
O134       Zr137   2.448       .  S
O134        C136   1.290       .  A
O135       Zr164   2.421       .  S
O135        C136   1.286       .  A
C136        C883   1.485       .  S
Zr137       O138   2.435       .  S
Zr137       O139   2.435       .  S
Zr137       O143   2.374       .  S
Zr137       O144   2.376       .  S
Zr137       O167   2.370       .  S
Zr137       O169   2.368       .  S
O138        H181   0.990       .  S
O139        H180   0.990       .  S
O139        H184   0.990       .  S
Zr140       O141   2.435       .  S
Zr140       O142   2.435       .  S
Zr140       O144   2.373       .  S
Zr140       O143   2.376       .  S
Zr140       O168   2.374       .  S
Zr140       O170   2.370       .  S
O141        H182   0.990       .  S
O141        H185   0.990       .  S
O142        H175   0.990       .  S
O143       Zr163   2.380       .  S
O144       Zr164   2.382       .  S
O144        H171   0.969       .  S
O145       Zr157   2.441       .  S
O145        C147   1.289       .  A
O146       Zr164   2.414       .  S
O146        C147   1.285       .  A
C147        C843   1.481       .  S
O148       Zr160   2.449       .  S
O148        C150   1.290       .  A
O149       Zr163   2.404       .  S
O149        C150   1.283       .  A
C150        C832   1.475       .  S
O151       Zr160   2.440       .  S
O151        C153   1.287       .  A
O152       Zr164   2.414       .  S
O152        C153   1.285       .  A
C153        C803   1.475       .  S
O154       Zr157   2.438       .  S
O154        C156   1.288       .  A
O155       Zr163   2.414       .  S
O155        C156   1.285       .  A
C156        C863   1.478       .  S
Zr157       O158   2.436       .  S
Zr157       O159   2.433       .  S
Zr157       O165   2.367       .  S
Zr157       O166   2.366       .  S
Zr157       O169   2.372       .  S
Zr157       O167   2.367       .  S
O158        H178   0.990       .  S
O158        H183   0.990       .  S
O159        H179   0.990       .  S
Zr160       O161   2.435       .  S
Zr160       O162   2.435       .  S
Zr160       O166   2.370       .  S
Zr160       O165   2.372       .  S
Zr160       O170   2.375       .  S
Zr160       O168   2.369       .  S
O161        H177   0.990       .  S
O162        H176   0.990       .  S
O162        H186   0.991       .  S
Zr163       O166   2.378       .  S
Zr163       O168   2.384       .  S
Zr163       O169   2.375       .  S
Zr164       O165   2.383       .  S
Zr164       O167   2.371       .  S
Zr164       O170   2.377       .  S
O165        H173   0.969       .  S
O168        H172   0.967       .  S
O169        H174   0.966       .  S
O187       Zr199   2.423       .  S
O187        C189   1.286       .  A
O188       Zr225   2.435       .  S
O188        C189   1.287       .  A
C189        C763   1.485       .  S
O190       Zr202   2.427       .  S
O190        C192   1.286       .  A
O191       Zr226   2.435       .  S
O191        C192   1.288       .  A
C192        C872   1.481       .  S
O193       Zr202   2.430       .  S
O193        C195   1.286       .  A
O194       Zr225   2.434   1_556  S
O194        C195   1.288       .  A
C195        C983   1.483       .  S
O196       Zr199   2.420       .  S
O196        C198   1.284       .  A
O197       Zr226   2.434   1_554  S
O197        C198   1.287       .  A
C198        C792   1.464       .  S
Zr199       O200   2.434   1_554  S
Zr199       O201   2.436       .  S
Zr199       O205   2.365   1_554  S
Zr199       O206   2.365   1_554  S
Zr199       O229   2.361       .  S
Zr199       O231   2.356       .  S
O200        H243   0.990       .  S
O201        H242   0.990       .  S
O201        H246   0.990       .  S
Zr202       O203   2.438       .  S
Zr202       O204   2.436       .  S
Zr202       O206   2.376       .  S
Zr202       O205   2.368       .  S
Zr202       O230   2.362       .  S
Zr202       O232   2.370       .  S
O203        H244   0.990       .  S
O203        H247   0.990       .  S
O204        H237   0.990       .  S
O205       Zr225   2.373   1_556  S
O206       Zr226   2.383       .  S
O206        H233   0.966       .  S
O207       Zr219   2.435       .  S
O207        C209   1.287       .  A
O208       Zr226   2.434   1_554  S
O208        C209   1.289       .  A
C209        C852   1.478       .  S
O210       Zr222   2.464       .  S
O210        C212   1.292       .  A
O211       Zr225   2.401   1_556  S
O211        C212   1.284       .  A
C212        C723   1.474       .  S
O213       Zr222   2.470       .  S
O213        C215   1.293       .  A
O214       Zr226   2.411       .  S
O214        C215   1.287       .  A
C215        C752   1.486   1_556  S
O216       Zr219   2.426       .  S
O216        C218   1.286       .  A
O217       Zr225   2.428       .  S
O217        C218   1.287       .  A
C218        C972   1.479       .  S
Zr219       O220   2.433       .  S
Zr219       O221   2.434       .  S
Zr219       O227   2.363       .  S
Zr219       O228   2.370       .  S
Zr219       O231   2.372       .  S
Zr219       O229   2.368       .  S
O220        H240   0.990       .  S
O220        H245   0.990       .  S
O221        H241   0.990       .  S
Zr222       O223   2.434   1_556  S
Zr222       O224   2.435       .  S
Zr222       O228   2.383   1_556  S
Zr222       O227   2.380   1_556  S
Zr222       O232   2.382       .  S
Zr222       O230   2.381       .  S
O223        H239   0.990       .  S
O224        H238   0.990       .  S
O224        H248   0.990       .  S
Zr225       O228   2.393       .  S
Zr225       O230   2.390   1_554  S
Zr225       O231   2.378       .  S
Zr226       O227   2.394   1_556  S
Zr226       O229   2.376   1_556  S
Zr226       O232   2.388       .  S
O227        H235   0.966       .  S
O230        H234   0.966       .  S
O231        H236   0.965       .  S
O249       Zr261   2.425   1_554  S
O249        C251   1.286       .  A
O250       Zr287   2.420   1_554  S
O250        C251   1.285       .  A
C251        C703   1.477       .  S
O252       Zr264   2.422       .  S
O252        C254   1.285       .  A
O253       Zr288   2.427       .  S
O253        C254   1.287       .  A
C254       C1023   1.479       .  S
O255       Zr264   2.419       .  S
O255        C257   1.284       .  A
O256       Zr287   2.432       .  S
O256        C257   1.288       .  A
C257       C1223   1.477       .  S
O258       Zr261   2.433   1_554  S
O258        C260   1.286       .  A
O259       Zr288   2.432       .  S
O259        C260   1.286   1_556  A
C260        C772   1.476       .  S
Zr261       O262   2.435       .  S
Zr261       O263   2.436   1_556  S
Zr261       O267   2.368       .  S
Zr261       O268   2.362       .  S
Zr261       O291   2.360   1_556  S
Zr261       O293   2.363   1_556  S
O262        H305   0.990       .  S
O263        H304   0.990       .  S
O263        H308   0.990       .  S
Zr264       O265   2.435       .  S
Zr264       O266   2.436       .  S
Zr264       O268   2.375       .  S
Zr264       O267   2.372       .  S
Zr264       O292   2.365       .  S
Zr264       O294   2.367       .  S
O265        H306   0.990       .  S
O265        H309   0.990       .  S
O266        H299   0.990       .  S
O267       Zr287   2.373       .  S
O268       Zr288   2.376       .  S
O268        H295   0.966       .  S
O269       Zr281   2.437       .  S
O269        C271   1.287       .  A
O270       Zr288   2.420   1_554  S
O270        C271   1.285       .  A
C271       C1012   1.474       .  S
O272       Zr284   2.475       .  S
O272        C274   1.294   1_556  A
O273       Zr287   2.392   1_554  S
O273        C274   1.283       .  A
C274        C672   1.486       .  S
O275       Zr284   2.463       .  S
O275        C277   1.292       .  A
O276       Zr288   2.401       .  S
O276        C277   1.285       .  A
C277        C683   1.476       .  S
O278       Zr281   2.438       .  S
O278        C280   1.288       .  A
O279       Zr287   2.430   1_554  S
O279        C280   1.287       .  A
C280       C1212   1.484       .  S
Zr281       O282   2.435       .  S
Zr281       O283   2.434       .  S
Zr281       O289   2.357       .  S
Zr281       O290   2.363       .  S
Zr281       O293   2.373       .  S
Zr281       O291   2.373       .  S
O282        H302   0.990       .  S
O282        H307   0.990       .  S
O283        H303   0.990       .  S
Zr284       O285   2.436   1_556  S
Zr284       O286   2.438       .  S
Zr284       O290   2.383   1_556  S
Zr284       O289   2.382   1_556  S
Zr284       O294   2.381       .  S
Zr284       O292   2.379       .  S
O285        H301   0.990       .  S
O286        H300   0.990       .  S
O286        H310   0.990       .  S
Zr287       O290   2.388   1_556  S
Zr287       O292   2.390       .  S
Zr287       O293   2.381   1_556  S
Zr288       O289   2.392   1_556  S
Zr288       O291   2.376   1_556  S
Zr288       O294   2.387       .  S
O289        H297   0.966       .  S
O292        H296   0.966       .  S
O293        H298   0.965       .  S
O311       Zr323   2.425       .  S
O311        C313   1.286       .  A
O312       Zr349   2.436       .  S
O312        C313   1.287       .  A
C313        C643   1.471       .  S
O314       Zr326   2.424       .  S
O314        C316   1.285       .  A
O315       Zr350   2.433       .  S
O315        C316   1.288       .  A
C316       C1112   1.481       .  S
O317       Zr326   2.436       .  S
O317        C319   1.288       .  A
O318       Zr349   2.417       .  S
O318        C319   1.286       .  A
C319       C1152   1.476       .  S
O320       Zr323   2.439       .  S
O320        C322   1.288       .  A
O321       Zr350   2.425       .  S
O321        C322   1.286       .  A
C322        C623   1.484       .  S
Zr323       O324   2.435       .  S
Zr323       O325   2.437   1_556  S
Zr323       O329   2.369       .  S
Zr323       O330   2.359       .  S
Zr323       O353   2.362   1_556  S
Zr323       O355   2.365   1_556  S
O324        H367   0.990       .  S
O325        H366   0.990       .  S
O325        H370   0.990       .  S
Zr326       O327   2.436       .  S
Zr326       O328   2.435       .  S
Zr326       O330   2.373       .  S
Zr326       O329   2.368       .  S
Zr326       O354   2.363       .  S
Zr326       O356   2.371       .  S
O327        H368   0.990       .  S
O327        H371   0.990       .  S
O328        H361   0.990       .  S
O329       Zr349   2.377       .  S
O330       Zr350   2.377       .  S
O330        H357   0.966       .  S
O331       Zr343   2.417       .  S
O331        C333   1.284       .  A
O332       Zr350   2.429   1_554  S
O332        C333   1.288       .  A
C333       C1083   1.477       .  S
O334       Zr346   2.466       .  S
O334        C336   1.292       .  A
O335       Zr349   2.418       .  S
O335        C336   1.288       .  A
C336        C603   1.484       .  S
O337       Zr346   2.473   1_554  S
O337        C339   1.294       .  A
O338       Zr350   2.394   1_554  S
O338        C339   1.283       .  A
C339        C732   1.484       .  S
O340       Zr343   2.415       .  S
O340        C342   1.284       .  A
O341       Zr349   2.431   1_554  S
O341        C342   1.288       .  A
C342       C1132   1.479       .  S
Zr343       O344   2.436       .  S
Zr343       O345   2.434       .  S
Zr343       O351   2.361       .  S
Zr343       O352   2.364       .  S
Zr343       O355   2.367       .  S
Zr343       O353   2.371       .  S
O344        H364   0.990       .  S
O344        H369   0.990       .  S
O345        H365   0.990       .  S
Zr346       O347   2.436   1_556  S
Zr346       O348   2.434       .  S
Zr346       O352   2.379   1_556  S
Zr346       O351   2.376   1_556  S
Zr346       O356   2.382       .  S
Zr346       O354   2.379       .  S
O347        H363   0.990       .  S
O348        H362   0.990       .  S
O348        H372   0.990       .  S
Zr349       O352   2.382   1_556  S
Zr349       O354   2.389       .  S
Zr349       O355   2.381   1_556  S
Zr350       O351   2.390   1_556  S
Zr350       O353   2.375   1_556  S
Zr350       O356   2.388       .  S
O351        H359   0.966       .  S
O354        H358   0.966       .  S
O355        H360   0.966       .  S
O373       Zr385   2.429       .  S
O373        C375   1.287       .  A
O374       Zr411   2.432       .  S
O374        C375   1.288       .  A
C375       C1192   1.484       .  S
O376       Zr388   2.427       .  S
O376        C378   1.285       .  A
O377       Zr412   2.440   1_554  S
O377        C378   1.288       .  A
C378        C592   1.475       .  S
O379       Zr388   2.423   1_556  S
O379        C381   1.285       .  A
O380       Zr411   2.440       .  S
O380        C381   1.288       .  A
C381        C652   1.486       .  S
O382       Zr385   2.431       .  S
O382        C384   1.286       .  A
O383       Zr412   2.432       .  S
O383        C384   1.288       .  A
C384        C903   1.483       .  S
Zr385       O386   2.436       .  S
Zr385       O387   2.435       .  S
Zr385       O391   2.370       .  S
Zr385       O392   2.375       .  S
Zr385       O415   2.367       .  S
Zr385       O417   2.373       .  S
O386        H429   0.990       .  S
O387        H428   0.990       .  S
O387        H432   0.990       .  S
Zr388       O389   2.435   1_554  S
Zr388       O390   2.434       .  S
Zr388       O392   2.366   1_554  S
Zr388       O391   2.369   1_554  S
Zr388       O416   2.364       .  S
Zr388       O418   2.362       .  S
O389        H430   0.991       .  S
O389        H433   0.990       .  S
O390        H423   0.989       .  S
O391       Zr411   2.379       .  S
O392       Zr412   2.382       .  S
O392        H419   0.966       .  S
O393       Zr405   2.467       .  S
O393        C395   1.292       .  A
O394       Zr412   2.410       .  S
O394        C395   1.286       .  A
C395        C743   1.482       .  S
O396       Zr408   2.450       .  S
O396        C398   1.290       .  A
O397       Zr411   2.415   1_554  S
O397        C398   1.285       .  A
C398       C1163   1.478       .  S
O399       Zr408   2.441       .  S
O399        C401   1.289       .  A
O400       Zr412   2.425   1_554  S
O400        C401   1.287       .  A
C401        C892   1.485       .  S
O402       Zr405   2.461   1_554  S
O402        C404   1.291       .  A
O403       Zr411   2.412   1_554  S
O403        C404   1.286       .  A
C404        C663   1.479       .  S
Zr405       O406   2.435   1_556  S
Zr405       O407   2.436       .  S
Zr405       O413   2.382   1_556  S
Zr405       O414   2.373   1_556  S
Zr405       O417   2.380       .  S
Zr405       O415   2.379       .  S
O406        H426   0.990       .  S
O406        H431   0.990       .  S
O407        H427   0.990       .  S
Zr408       O409   2.436       .  S
Zr408       O410   2.435       .  S
Zr408       O414   2.363       .  S
Zr408       O413   2.376       .  S
Zr408       O418   2.369       .  S
Zr408       O416   2.375       .  S
O409        H425   0.990       .  S
O410        H424   0.990       .  S
O410        H434   0.990       .  S
Zr411       O414   2.385   1_556  S
Zr411       O416   2.384   1_556  S
Zr411       O417   2.392       .  S
Zr412       O413   2.398   1_556  S
Zr412       O415   2.386       .  S
Zr412       O418   2.379   1_556  S
O413        H421   0.966       .  S
O416        H420   0.966       .  S
O417        H422   0.967       .  S
O435       Zr447   2.422       .  S
O435        C437   1.285       .  A
O436       Zr473   2.425       .  S
O436        C437   1.285       .  A
C437        C632   1.471       .  S
O438       Zr450   2.417       .  S
O438        C440   1.284       .  A
O439       Zr474   2.429       .  S
O439        C440   1.287       .  A
C440        C952   1.474       .  S
O441       Zr450   2.429       .  S
O441        C443   1.286       .  A
O442       Zr473   2.424       .  S
O442        C443   1.286       .  A
C443       C1072   1.474       .  S
O444       Zr447   2.412   1_554  S
O444        C446   1.283       .  A
O445       Zr474   2.448       .  S
O445        C446   1.290   1_556  A
C446        C583   1.486       .  S
Zr447       O448   2.436       .  S
Zr447       O449   2.437   1_556  S
Zr447       O453   2.356       .  S
Zr447       O454   2.365       .  S
Zr447       O477   2.370   1_556  S
Zr447       O479   2.356   1_556  S
O448        H491   0.990       .  S
O449        H490   0.990       .  S
O449        H494   0.990       .  S
Zr450       O451   2.437       .  S
Zr450       O452   2.434       .  S
Zr450       O454   2.374       .  S
Zr450       O453   2.363       .  S
Zr450       O478   2.361       .  S
Zr450       O480   2.368       .  S
O451        H492   0.990       .  S
O451        H495   0.990       .  S
O452        H485   0.990       .  S
O453       Zr473   2.370       .  S
O454       Zr474   2.385       .  S
O454        H481   0.966       .  S
O455       Zr467   2.434       .  S
O455        C457   1.287       .  A
O456       Zr474   2.421   1_554  S
O456        C457   1.286       .  A
C457        C923   1.477       .  S
O458       Zr470   2.467       .  S
O458        C460   1.293       .  A
O459       Zr473   2.400       .  S
O459        C460   1.284       .  A
C460        C692   1.481       .  S
O461       Zr470   2.473   1_554  S
O461        C463   1.294       .  A
O462       Zr474   2.417   1_554  S
O462        C463   1.287       .  A
C463        C563   1.483       .  S
O464       Zr467   2.425       .  S
O464        C466   1.286       .  A
O465       Zr473   2.423   1_554  S
O465        C466   1.286       .  A
C466       C1043   1.478       .  S
Zr467       O468   2.438       .  S
Zr467       O469   2.433       .  S
Zr467       O475   2.361       .  S
Zr467       O476   2.371       .  S
Zr467       O479   2.373       .  S
Zr467       O477   2.371       .  S
O468        H488   0.990       .  S
O468        H493   0.990       .  S
O469        H489   0.990       .  S
Zr470       O471   2.435   1_556  S
Zr470       O472   2.435       .  S
Zr470       O476   2.383   1_556  S
Zr470       O475   2.377   1_556  S
Zr470       O480   2.382       .  S
Zr470       O478   2.381       .  S
O471        H487   0.990       .  S
O472        H486   0.990       .  S
O472        H496   0.990       .  S
Zr473       O476   2.388   1_556  S
Zr473       O478   2.391       .  S
Zr473       O479   2.379   1_556  S
Zr474       O475   2.392   1_556  S
Zr474       O477   2.381   1_556  S
Zr474       O480   2.390       .  S
O475        H483   0.966       .  S
O478        H482   0.966       .  S
O479        H484   0.965       .  S
O497       Zr509   2.418       .  S
O497        C499   1.284       .  A
O498       Zr535   2.433       .  S
O498        C499   1.288       .  A
C499       C1272   1.479       .  S
O500       Zr512   2.429       .  S
O500        C502   1.286       .  A
O501       Zr536   2.425       .  S
O501        C502   1.286       .  A
C502        C783   1.478       .  S
O503       Zr512   2.435       .  S
O503        C505   1.287       .  A
O504       Zr535   2.434   1_554  S
O504        C505   1.286       .  A
C505        C712   1.470       .  S
O506       Zr509   2.421       .  S
O506        C508   1.285       .  A
O507       Zr536   2.436   1_556  S
O507        C508   1.288       .  A
C508        C823   1.479       .  S
Zr509       O510   2.434       .  S
Zr509       O511   2.435       .  S
Zr509       O515   2.372       .  S
Zr509       O516   2.368       .  S
Zr509       O539   2.364       .  S
Zr509       O541   2.368       .  S
O510        H553   0.990       .  S
O511        H552   0.990       .  S
O511        H556   0.990       .  S
Zr512       O513   2.436   1_554  S
Zr512       O514   2.437       .  S
Zr512       O516   2.365   1_554  S
Zr512       O515   2.368   1_554  S
Zr512       O540   2.362       .  S
Zr512       O542   2.370       .  S
O513        H554   0.990       .  S
O513        H557   0.990       .  S
O514        H547   0.990       .  S
O515       Zr535   2.374       .  S
O516       Zr536   2.377   1_556  S
O516        H543   0.966       .  S
O517       Zr529   2.476       .  S
O517        C519   1.295       .  A
O518       Zr536   2.403   1_556  S
O518        C519   1.285       .  A
C519        C572   1.491       .  S
O520       Zr532   2.440       .  S
O520        C522   1.288       .  A
O521       Zr535   2.416   1_554  S
O521        C522   1.285       .  A
C522       C1252   1.477       .  S
O523       Zr532   2.430       .  S
O523        C525   1.286       .  A
O524       Zr536   2.426       .  S
O524        C525   1.287       .  A
C525        C812   1.482       .  S
O526       Zr529   2.473       .  S
O526        C528   1.294       .  A
O527       Zr535   2.405       .  S
O527        C528   1.285       .  A
C528        C612   1.488   1_556  S
Zr529       O530   2.437   1_556  S
Zr529       O531   2.435       .  S
Zr529       O537   2.381   1_556  S
Zr529       O538   2.380   1_556  S
Zr529       O541   2.386       .  S
Zr529       O539   2.380       .  S
O530        H550   0.990       .  S
O530        H555   0.990       .  S
O531        H551   0.990       .  S
Zr532       O533   2.434       .  S
Zr532       O534   2.437       .  S
Zr532       O538   2.366       .  S
Zr532       O537   2.368       .  S
Zr532       O542   2.374       .  S
Zr532       O540   2.367       .  S
O533        H549   0.990       .  S
O534        H548   0.990       .  S
O534        H558   0.990       .  S
Zr535       O538   2.390   1_556  S
Zr535       O540   2.383   1_556  S
Zr535       O541   2.388       .  S
Zr536       O537   2.393       .  S
Zr536       O539   2.383   1_554  S
Zr536       O542   2.384       .  S
O537        H545   0.966       .  S
O540        H544   0.966       .  S
O541        H546   0.966       .  S
C559        C560   1.409   1_556  A
C559        C564   1.408       .  A
C559        H569   1.083       .  S
C560        C565   1.492       .  S
C560        C561   1.405       .  A
C561        C562   1.394       .  A
C561        H566   1.083       .  S
C562        C563   1.404       .  A
C562        H567   1.084       .  S
C563        C564   1.407   1_554  A
C564        H568   1.083       .  S
C565        C570   1.408       .  A
C565        C574   1.404   1_554  A
C570        C571   1.407   1_554  A
C570        H575   1.083       .  S
C571        C572   1.408       .  A
C571        H576   1.083   1_556  S
C572        C573   1.408       .  A
C573        C574   1.393       .  A
C573        H577   1.083       .  S
C574        H578   1.083       .  S
C579        C580   1.402       .  A
C579        C584   1.388       .  A
C579        H589   1.083       .  S
C580        C585   1.485       .  S
C580        C581   1.408       .  A
C581        C582   1.408       .  A
C581        H586   1.083       .  S
C582        C583   1.408       .  A
C582        H587   1.083   1_554  S
C583        C584   1.408       .  A
C584        H588   1.083       .  S
C585        C590   1.407   1_554  A
C585        C594   1.405       .  A
C590        C591   1.406       .  A
C590        H595   1.083       .  S
C591        C592   1.405   1_556  A
C591        H596   1.083       .  S
C592        C593   1.402       .  A
C593        C594   1.392       .  A
C593        H597   1.084       .  S
C594        H598   1.083       .  S
C599        C600   1.402       .  A
C599        C604   1.391       .  A
C599        H609   1.084       .  S
C600        C605   1.484   1_566  S
C600        C601   1.407   1_556  A
C601        C602   1.409       .  A
C601        H606   1.083       .  S
C602        C603   1.409   1_554  A
C602        H607   1.083       .  S
C603        C604   1.404       .  A
C604        H608   1.084       .  S
C605        C610   1.401       .  A
C605        C614   1.407   1_554  A
C610        C611   1.391       .  A
C610        H615   1.084       .  S
C611        C612   1.407       .  A
C611        H616   1.083       .  S
C612        C613   1.409   1_554  A
C613        C614   1.409       .  A
C613        H617   1.083       .  S
C614        H618   1.083       .  S
C619        C620   1.401       .  A
C619        C624   1.388   1_556  A
C619        H629   1.084   1_556  S
C620        C625   1.476       .  S
C620        C621   1.404       .  A
C621        C622   1.406       .  A
C621        H626   1.083       .  S
C622        C623   1.411       .  A
C622        H627   1.083       .  S
C623        C624   1.405   1_556  A
C624        H628   1.083       .  S
C625        C630   1.402       .  A
C625        C634   1.406   1_556  A
C630        C631   1.388       .  A
C630        H635   1.084       .  S
C631        C632   1.402       .  A
C631        H636   1.084       .  S
C632        C633   1.405   1_556  A
C633        C634   1.405       .  A
C633        H637   1.083       .  S
C634        H638   1.083       .  S
C639        C640   1.408   1_554  A
C639        C644   1.405       .  A
C639        H649   1.083       .  S
C640        C645   1.486       .  S
C640        C641   1.405       .  A
C641        C642   1.391       .  A
C641        H646   1.083       .  S
C642        C643   1.401       .  A
C642        H647   1.084       .  S
C643        C644   1.404   1_556  A
C644        H648   1.083       .  S
C645        C650   1.407       .  A
C645        C654   1.403       .  A
C650        C651   1.406       .  A
C650        H655   1.083       .  S
C651        C652   1.408       .  A
C651        H656   1.083   1_556  S
C652        C653   1.407       .  A
C653        C654   1.390       .  A
C653        H657   1.083       .  S
C654        H658   1.083       .  S
C659        C660   1.406       .  A
C659        C664   1.394       .  A
C659        H669   1.083       .  S
C660        C665   1.487   1_565  S
C660        C661   1.407   1_554  A
C661        C662   1.404       .  A
C661        H666   1.083       .  S
C662        C663   1.405   1_556  A
C662        H667   1.083       .  S
C663        C664   1.404       .  A
C664        H668   1.084       .  S
C665        C670   1.402       .  A
C665        C674   1.409       .  A
C670        C671   1.389       .  A
C670        H675   1.083       .  S
C671        C672   1.408       .  A
C671        H676   1.083   1_554  S
C672        C673   1.407       .  A
C673        C674   1.406       .  A
C673        H677   1.083       .  S
C674        H678   1.083       .  S
C679        C680   1.401   1_554  A
C679        C684   1.388       .  A
C679        H689   1.084       .  S
C680        C685   1.478   1_655  S
C680        C681   1.406       .  A
C681        C682   1.406       .  A
C681        H686   1.083       .  S
C682        C683   1.406       .  A
C682        H687   1.083       .  S
C683        C684   1.404   1_556  A
C684        H688   1.084       .  S
C685        C690   1.401       .  A
C685        C694   1.405   1_556  A
C690        C691   1.388       .  A
C690        H695   1.084       .  S
C691        C692   1.406       .  A
C691        H696   1.083       .  S
C692        C693   1.407   1_556  A
C693        C694   1.406       .  A
C693        H697   1.083       .  S
C694        H698   1.083       .  S
C699        C700   1.406   1_556  A
C699        C704   1.403       .  A
C699        H709   1.083       .  S
C700        C705   1.482       .  S
C700        C701   1.404       .  A
C701        C702   1.387       .  A
C701        H706   1.083       .  S
C702        C703   1.403       .  A
C702        H707   1.083       .  S
C703        C704   1.407   1_554  A
C704        H708   1.083       .  S
C705        C710   1.408   1_554  A
C705        C714   1.404       .  A
C710        C711   1.405       .  A
C710        H715   1.083       .  S
C711        C712   1.405   1_556  A
C711        H716   1.083       .  S
C712        C713   1.400       .  A
C713        C714   1.390       .  A
C713        H717   1.084       .  S
C714        H718   1.083       .  S
C719        C720   1.407   1_554  A
C719        C724   1.404       .  A
C719        H729   1.083       .  S
C720        C725   1.480   1_656  S
C720        C721   1.403       .  A
C721        C722   1.391       .  A
C721        H726   1.083       .  S
C722        C723   1.404       .  A
C722        H727   1.084       .  S
C723        C724   1.405   1_556  A
C724        H728   1.083       .  S
C725        C730   1.405   1_554  A
C725        C734   1.402       .  A
C730        C731   1.403       .  A
C730        H735   1.083       .  S
C731        C732   1.406   1_556  A
C731        H736   1.083       .  S
C732        C733   1.409       .  A
C733        C734   1.391       .  A
C733        H737   1.083       .  S
C734        H738   1.084       .  S
C739        C740   1.407   1_554  A
C739        C744   1.409       .  A
C739        H749   1.083       .  S
C740        C745   1.483       .  S
C740        C741   1.403       .  A
C741        C742   1.390       .  A
C741        H746   1.084       .  S
C742        C743   1.403       .  A
C742        H747   1.084       .  S
C743        C744   1.409   1_556  A
C744        H748   1.083       .  S
C745        C750   1.407       .  A
C745        C754   1.401   1_556  A
C750        C751   1.410       .  A
C750        H755   1.083       .  S
C751        C752   1.409   1_556  A
C751        H756   1.083       .  S
C752        C753   1.405       .  A
C753        C754   1.389       .  A
C753        H757   1.083       .  S
C754        H758   1.084       .  S
C759        C760   1.402       .  A
C759        C764   1.387       .  A
C759        H769   1.083       .  S
C760        C765   1.485       .  S
C760        C761   1.407       .  A
C761        C762   1.408       .  A
C761        H766   1.083       .  S
C762        C763   1.409       .  A
C762        H767   1.083   1_554  S
C763        C764   1.406       .  A
C764        H768   1.083       .  S
C765        C770   1.404       .  A
C765        C774   1.407   1_554  A
C770        C771   1.391       .  A
C770        H775   1.083       .  S
C771        C772   1.402       .  A
C771        H776   1.084       .  S
C772        C773   1.406   1_554  A
C773        C774   1.407       .  A
C773        H777   1.083       .  S
C774        H778   1.083       .  S
C779        C780   1.404       .  A
C779        C784   1.390       .  A
C779        H789   1.083       .  S
C780        C785   1.481       .  S
C780        C781   1.406       .  A
C781        C782   1.402   1_554  A
C781        H786   1.083   1_554  S
C782        C783   1.407   1_556  A
C782        H787   1.083       .  S
C783        C784   1.404       .  A
C784        H788   1.083       .  S
C785        C790   1.405       .  A
C785        C794   1.407   1_554  A
C790        C791   1.393       .  A
C790        H795   1.083       .  S
C791        C792   1.401       .  A
C791        H796   1.084       .  S
C792        C793   1.401   1_554  A
C793        C794   1.401       .  A
C793        H797   1.083       .  S
C794        H798   1.083       .  S
C799        C800   1.406       .  A
C799        C804   1.396       .  A
C799        H809   1.083       .  S
C800        C805   1.484       .  S
C800        C801   1.406       .  A
C801        C802   1.396       .  A
C801        H806   1.083       .  S
C802        C803   1.404       .  A
C802        H807   1.083       .  S
C803        C804   1.404       .  A
C804        H808   1.083       .  S
C805        C810   1.407       .  A
C805        C814   1.404       .  A
C810        C811   1.398       .  A
C810        H815   1.083       .  S
C811        C812   1.405       .  A
C811        H816   1.083       .  S
C812        C813   1.407       .  A
C813        C814   1.394       .  A
C813        H817   1.083       .  S
C814        H818   1.083       .  S
C819        C820   1.408       .  A
C819        C824   1.400       .  A
C819        H829   1.082       .  S
C820        C825   1.486       .  S
C820        C821   1.404       .  A
C821        C822   1.392       .  A
C821        H826   1.083       .  S
C822        C823   1.406       .  A
C822        H827   1.083       .  S
C823        C824   1.405       .  A
C824        H828   1.083       .  S
C825        C830   1.408       .  A
C825        C834   1.405       .  A
C830        C831   1.395       .  A
C830        H835   1.083       .  S
C831        C832   1.402       .  A
C831        H836   1.083       .  S
C832        C833   1.406       .  A
C833        C834   1.397       .  A
C833        H837   1.083       .  S
C834        H838   1.082       .  S
C839        C840   1.408       .  A
C839        C844   1.396       .  A
C839        H849   1.082       .  S
C840        C845   1.491       .  S
C840        C841   1.408       .  A
C841        C842   1.398       .  A
C841        H846   1.082       .  S
C842        C843   1.406       .  A
C842        H847   1.083       .  S
C843        C844   1.404       .  A
C844        H848   1.083       .  S
C845        C850   1.408       .  A
C845        C854   1.409       .  A
C850        C851   1.398       .  A
C850        H855   1.082       .  S
C851        C852   1.405       .  A
C851        H856   1.083       .  S
C852        C853   1.402       .  A
C853        C854   1.399       .  A
C853        H857   1.083       .  S
C854        H858   1.082       .  S
C859        C860   1.405       .  A
C859        C864   1.398       .  A
C859        H869   1.083       .  S
C860        C865   1.483       .  S
C860        C861   1.406       .  A
C861        C862   1.393       .  A
C861        H866   1.083       .  S
C862        C863   1.404       .  A
C862        H867   1.083       .  S
C863        C864   1.407       .  A
C864        H868   1.083       .  S
C865        C870   1.403       .  A
C865        C874   1.407       .  A
C870        C871   1.391       .  A
C870        H875   1.083       .  S
C871        C872   1.407       .  A
C871        H876   1.083       .  S
C872        C873   1.406       .  A
C873        C874   1.401       .  A
C873        H877   1.083       .  S
C874        H878   1.083       .  S
C879        C880   1.406       .  A
C879        C884   1.402       .  A
C879        H889   1.083       .  S
C880        C885   1.488       .  S
C880        C881   1.406       .  A
C881        C882   1.396       .  A
C881        H886   1.083       .  S
C882        C883   1.405       .  A
C882        H887   1.083       .  S
C883        C884   1.408       .  A
C884        H888   1.083       .  S
C885        C890   1.407       .  A
C885        C894   1.404       .  A
C890        C891   1.403       .  A
C890        H895   1.083       .  S
C891        C892   1.408       .  A
C891        H896   1.083       .  S
C892        C893   1.406       .  A
C893        C894   1.393       .  A
C893        H897   1.083       .  S
C894        H898   1.083       .  S
C899        C900   1.411       .  A
C899        C904   1.401       .  A
C899        H909   1.082       .  S
C900        C905   1.496       .  S
C900        C901   1.407       .  A
C901        C902   1.396       .  A
C901        H906   1.082       .  S
C902        C903   1.406       .  A
C902        H907   1.083       .  S
C903        C904   1.405       .  A
C904        H908   1.083       .  S
C905        C910   1.407       .  A
C905        C914   1.411       .  A
C910        C911   1.400       .  A
C910        H915   1.082       .  S
C911        C912   1.408       .  A
C911        H916   1.083       .  S
C912        C913   1.403       .  A
C913        C914   1.400       .  A
C913        H917   1.083       .  S
C914        H918   1.082       .  S
C919        C920   1.408       .  A
C919        C924   1.399       .  A
C919        H929   1.082       .  S
C920        C925   1.487       .  S
C920        C921   1.405       .  A
C921        C922   1.395       .  A
C921        H926   1.083       .  S
C922        C923   1.405       .  A
C922        H927   1.083       .  S
C923        C924   1.404       .  A
C924        H928   1.083       .  S
C925        C930   1.405       .  A
C925        C934   1.408       .  A
C930        C931   1.398       .  A
C930        H935   1.083       .  S
C931        C932   1.407       .  A
C931        H936   1.083       .  S
C932        C933   1.404       .  A
C933        C934   1.397       .  A
C933        H937   1.083       .  S
C934        H938   1.083       .  S
C939        C940   1.404       .  A
C939        C944   1.390       .  A
C939        H949   1.083       .  S
C940        C945   1.481       .  S
C940        C941   1.406       .  A
C941        C942   1.398       .  A
C941        H946   1.083       .  S
C942        C943   1.407       .  A
C942        H947   1.083       .  S
C943        C944   1.404       .  A
C944        H948   1.083       .  S
C945        C950   1.403       .  A
C945        C954   1.407       .  A
C950        C951   1.388       .  A
C950        H955   1.083       .  S
C951        C952   1.405       .  A
C951        H956   1.083       .  S
C952        C953   1.404       .  A
C953        C954   1.399       .  A
C953        H957   1.083       .  S
C954        H958   1.082       .  S
C959        C960   1.406       .  A
C959        C964   1.396       .  A
C959        H969   1.082       .  S
C960        C965   1.485       .  S
C960        C961   1.406       .  A
C961        C962   1.393       .  A
C961        H966   1.082       .  S
C962        C963   1.403       .  A
C962        H967   1.083       .  S
C963        C964   1.405       .  A
C964        H968   1.083       .  S
C965        C970   1.407       .  A
C965        C974   1.404       .  A
C970        C971   1.399       .  A
C970        H975   1.082       .  S
C971        C972   1.405       .  A
C971        H976   1.083       .  S
C972        C973   1.406       .  A
C973        C974   1.392       .  A
C973        H977   1.083       .  S
C974        H978   1.083       .  S
C979        C980   1.405       .  A
C979        C984   1.394       .  A
C979        H989   1.082       .  S
C980        C985   1.492       .  S
C980        C981   1.410       .  A
C981        C982   1.403       .  A
C981        H986   1.082       .  S
C982        C983   1.405       .  A
C982        H987   1.083       .  S
C983        C984   1.406       .  A
C984        H988   1.083       .  S
C985        C990   1.409       .  A
C985        C994   1.406       .  A
C990        C991   1.398       .  A
C990        H995   1.082       .  S
C991        C992   1.404       .  A
C991        H996   1.083       .  S
C992        C993   1.406       .  A
C993        C994   1.399       .  A
C993        H997   1.083       .  S
C994        H998   1.082       .  S
C999       C1000   1.407       .  A
C999       C1004   1.396       .  A
C999       H1009   1.083       .  S
C1000      C1005   1.486       .  S
C1000      C1001   1.405       .  A
C1001      C1002   1.399       .  A
C1001      H1006   1.083       .  S
C1002      C1003   1.408       .  A
C1002      H1007   1.083       .  S
C1003      C1004   1.404       .  A
C1004      H1008   1.083       .  S
C1005      C1010   1.405       .  A
C1005      C1014   1.407       .  A
C1010      C1011   1.394       .  A
C1010      H1015   1.083       .  S
C1011      C1012   1.402       .  A
C1011      H1016   1.083       .  S
C1012      C1013   1.405       .  A
C1013      C1014   1.400       .  A
C1013      H1017   1.084       .  S
C1014      H1018   1.083       .  S
C1019      C1020   1.403       .  A
C1019      C1024   1.392       .  A
C1019      H1029   1.083       .  S
C1020      C1025   1.482       .  S
C1020      C1021   1.407       .  A
C1021      C1022   1.398       .  A
C1021      H1026   1.083       .  S
C1022      C1023   1.405       .  A
C1022      H1027   1.083       .  S
C1023      C1024   1.407       .  A
C1024      H1028   1.083       .  S
C1025      C1030   1.406       .  A
C1025      C1034   1.404       .  A
C1030      C1031   1.396       .  A
C1030      H1035   1.083       .  S
C1031      C1032   1.405       .  A
C1031      H1036   1.083       .  S
C1032      C1033   1.406       .  A
C1033      C1034   1.394       .  A
C1033      H1037   1.083       .  S
C1034      H1038   1.083       .  S
C1039      C1040   1.404       .  A
C1039      C1044   1.389       .  A
C1039      H1049   1.082       .  S
C1040      C1045   1.485       .  S
C1040      C1041   1.408       .  A
C1041      C1042   1.400       .  A
C1041      H1046   1.082       .  S
C1042      C1043   1.406       .  A
C1042      H1047   1.083       .  S
C1043      C1044   1.405       .  A
C1044      H1048   1.083       .  S
C1045      C1050   1.406       .  A
C1045      C1054   1.407       .  A
C1050      C1051   1.392       .  A
C1050      H1055   1.082       .  S
C1051      C1052   1.403       .  A
C1051      H1056   1.083       .  S
C1052      C1053   1.404       .  A
C1053      C1054   1.399       .  A
C1053      H1057   1.083       .  S
C1054      H1058   1.082       .  S
C1059      C1060   1.408       .  A
C1059      C1064   1.396       .  A
C1059      H1069   1.082       .  S
C1060      C1065   1.485       .  S
C1060      C1061   1.404       .  A
C1061      C1062   1.395       .  A
C1061      H1066   1.082       .  S
C1062      C1063   1.406       .  A
C1062      H1067   1.083       .  S
C1063      C1064   1.403       .  A
C1064      H1068   1.083       .  S
C1065      C1070   1.404       .  A
C1065      C1074   1.409       .  A
C1070      C1071   1.393       .  A
C1070      H1075   1.082       .  S
C1071      C1072   1.403       .  A
C1071      H1076   1.083       .  S
C1072      C1073   1.404       .  A
C1073      C1074   1.399       .  A
C1073      H1077   1.083       .  S
C1074      H1078   1.083       .  S
C1079      C1080   1.407       .  A
C1079      C1084   1.398       .  A
C1079      H1089   1.083       .  S
C1080      C1085   1.479       .  S
C1080      C1081   1.402       .  A
C1081      C1082   1.390       .  A
C1081      H1086   1.083       .  S
C1082      C1083   1.407       .  A
C1082      H1087   1.083       .  S
C1083      C1084   1.404       .  A
C1084      H1088   1.083       .  S
C1085      C1090   1.406       .  A
C1085      C1094   1.403       .  A
C1090      C1091   1.395       .  A
C1090      H1095   1.083       .  S
C1091      C1092   1.405       .  A
C1091      H1096   1.083       .  S
C1092      C1093   1.405       .  A
C1093      C1094   1.394       .  A
C1093      H1097   1.083       .  S
C1094      H1098   1.083       .  S
C1099      C1100   1.405       .  A
C1099      C1104   1.399       .  A
C1099      H1109   1.083       .  S
C1100      C1105   1.483       .  S
C1100      C1101   1.405       .  A
C1101      C1102   1.395       .  A
C1101      H1106   1.083       .  S
C1102      C1103   1.405       .  A
C1102      H1107   1.083       .  S
C1103      C1104   1.406       .  A
C1104      H1108   1.083       .  S
C1105      C1110   1.406       .  A
C1105      C1114   1.403       .  A
C1110      C1111   1.400       .  A
C1110      H1115   1.083       .  S
C1111      C1112   1.406       .  A
C1111      H1116   1.083       .  S
C1112      C1113   1.407       .  A
C1113      C1114   1.392       .  A
C1113      H1117   1.083       .  S
C1114      H1118   1.083       .  S
C1119      C1120   1.407       .  A
C1119      C1124   1.393       .  A
C1119      H1129   1.082       .  S
C1120      C1125   1.487       .  S
C1120      C1121   1.408       .  A
C1121      C1122   1.398       .  A
C1121      H1126   1.082       .  S
C1122      C1123   1.404       .  A
C1122      H1127   1.083       .  S
C1123      C1124   1.403       .  A
C1124      H1128   1.083       .  S
C1125      C1130   1.404       .  A
C1125      C1134   1.408       .  A
C1130      C1131   1.390       .  A
C1130      H1135   1.082       .  S
C1131      C1132   1.407       .  A
C1131      H1136   1.083       .  S
C1132      C1133   1.404       .  A
C1133      C1134   1.400       .  A
C1133      H1137   1.083       .  S
C1134      H1138   1.082       .  S
C1139      C1140   1.406       .  A
C1139      C1144   1.396       .  A
C1139      H1149   1.082       .  S
C1140      C1145   1.488       .  S
C1140      C1141   1.408       .  A
C1141      C1142   1.397       .  A
C1141      H1146   1.082       .  S
C1142      C1143   1.404       .  A
C1142      H1147   1.083       .  S
C1143      C1144   1.405       .  A
C1144      H1148   1.083       .  S
C1145      C1150   1.407       .  A
C1145      C1154   1.407       .  A
C1150      C1151   1.396       .  A
C1150      H1155   1.082       .  S
C1151      C1152   1.404       .  A
C1151      H1156   1.083       .  S
C1152      C1153   1.404       .  A
C1153      C1154   1.397       .  A
C1153      H1157   1.083       .  S
C1154      H1158   1.082       .  S
C1159      C1160   1.407       .  A
C1159      C1164   1.398       .  A
C1159      H1169   1.083       .  S
C1160      C1165   1.488       .  S
C1160      C1161   1.406       .  A
C1161      C1162   1.397       .  A
C1161      H1166   1.083       .  S
C1162      C1163   1.405       .  A
C1162      H1167   1.083       .  S
C1163      C1164   1.404       .  A
C1164      H1168   1.083       .  S
C1165      C1170   1.407       .  A
C1165      C1174   1.406       .  A
C1170      C1171   1.398       .  A
C1170      H1175   1.083       .  S
C1171      C1172   1.405       .  A
C1171      H1176   1.083       .  S
C1172      C1173   1.408       .  A
C1173      C1174   1.398       .  A
C1173      H1177   1.083       .  S
C1174      H1178   1.083       .  S
C1179      C1180   1.406       .  A
C1179      C1184   1.400       .  A
C1179      H1189   1.083       .  S
C1180      C1185   1.488       .  S
C1180      C1181   1.407       .  A
C1181      C1182   1.394       .  A
C1181      H1186   1.082       .  S
C1182      C1183   1.403       .  A
C1182      H1187   1.083       .  S
C1183      C1184   1.408       .  A
C1184      H1188   1.083       .  S
C1185      C1190   1.404       .  A
C1185      C1194   1.409       .  A
C1190      C1191   1.391       .  A
C1190      H1195   1.082       .  S
C1191      C1192   1.406       .  A
C1191      H1196   1.083       .  S
C1192      C1193   1.407       .  A
C1193      C1194   1.403       .  A
C1193      H1197   1.083       .  S
C1194      H1198   1.083       .  S
C1199      C1200   1.406       .  A
C1199      C1204   1.398       .  A
C1199      H1209   1.083       .  S
C1200      C1205   1.485       .  S
C1200      C1201   1.406       .  A
C1201      C1202   1.394       .  A
C1201      H1206   1.083       .  S
C1202      C1203   1.403       .  A
C1202      H1207   1.083       .  S
C1203      C1204   1.406       .  A
C1204      H1208   1.083       .  S
C1205      C1210   1.407       .  A
C1205      C1214   1.404       .  A
C1210      C1211   1.401       .  A
C1210      H1215   1.083       .  S
C1211      C1212   1.407       .  A
C1211      H1216   1.083       .  S
C1212      C1213   1.406       .  A
C1213      C1214   1.392       .  A
C1213      H1217   1.083       .  S
C1214      H1218   1.083       .  S
C1219      C1220   1.404       .  A
C1219      C1224   1.393       .  A
C1219      H1229   1.083       .  S
C1220      C1225   1.484       .  S
C1220      C1221   1.407       .  A
C1221      C1222   1.399       .  A
C1221      H1226   1.083       .  S
C1222      C1223   1.404       .  A
C1222      H1227   1.083       .  S
C1223      C1224   1.406       .  A
C1224      H1228   1.083       .  S
C1225      C1230   1.407       .  A
C1225      C1234   1.405       .  A
C1230      C1231   1.397       .  A
C1230      H1235   1.083       .  S
C1231      C1232   1.404       .  A
C1231      H1236   1.083       .  S
C1232      C1233   1.405       .  A
C1233      C1234   1.398       .  A
C1233      H1237   1.083       .  S
C1234      H1238   1.083       .  S
C1239      C1240   1.406       .  A
C1239      C1244   1.395       .  A
C1239      H1249   1.082       .  S
C1240      C1245   1.489       .  S
C1240      C1241   1.409       .  A
C1241      C1242   1.397       .  A
C1241      H1246   1.082       .  S
C1242      C1243   1.404       .  A
C1242      H1247   1.083       .  S
C1243      C1244   1.406       .  A
C1244      H1248   1.083       .  S
C1245      C1250   1.408       .  A
C1245      C1254   1.406       .  A
C1250      C1251   1.397       .  A
C1250      H1255   1.082       .  S
C1251      C1252   1.404       .  A
C1251      H1256   1.083       .  S
C1252      C1253   1.404       .  A
C1253      C1254   1.395       .  A
C1253      H1257   1.083       .  S
C1254      H1258   1.082       .  S
C1259      C1260   1.406       .  A
C1259      C1264   1.396       .  A
C1259      H1269   1.083       .  S
C1260      C1265   1.480       .  S
C1260      C1261   1.403       .  A
C1261      C1262   1.395       .  A
C1261      H1266   1.083       .  S
C1262      C1263   1.407       .  A
C1262      H1267   1.083       .  S
C1263      C1264   1.406       .  A
C1264      H1268   1.083       .  S
C1265      C1270   1.407       .  A
C1265      C1274   1.402       .  A
C1270      C1271   1.400       .  A
C1270      H1275   1.083       .  S
C1271      C1272   1.404       .  A
C1271      H1276   1.083       .  S
C1272      C1273   1.407       .  A
C1273      C1274   1.392       .  A
C1273      H1277   1.083       .  S
C1274      H1278   1.083       .  S
