geometry optimzed in LAMMPS
_audit_creation_date              2020-11-30 
_audit_creation_method            'lammps2cif' 
_symmetry_space_group_name_H-M    'P1' 
_symmetry_Int_Tables_number       1 
_symmetry_cell_setting            triclinic 
loop_ 
_symmetry_equiv_pos_as_xyz 
  x,y,z 
_cell_length_a                    47.6768814 
_cell_length_b                    46.78615621447295 
_cell_length_c                    44.828204808341816 
_cell_angle_alpha                 90.42083924043615 
_cell_angle_beta                  89.08998099091122 
_cell_angle_gamma                 90.53211568107774 
loop_ 
_atom_site_label 
_atom_site_type_symbol 
_atom_site_fract_x 
_atom_site_fract_y 
_atom_site_fract_z 
_atom_site_charge 
C1          C  0.50991133  0.28077428  0.02665041     0.80600
N2          N  0.52333889  0.28119811  0.50574516    -0.77700
C3          C  0.55169621  0.28340236  0.50426013     0.83000
N4          N  0.56653753  0.28518652  0.52993794    -0.77700
C5          C  0.55304436  0.28668525  0.05104931     0.83100
N6          N  0.52462612  0.28487112  0.05197079    -0.79400
O7          O  0.68320100  0.31446576  0.30179217    -0.81400
C8          C  0.79836733  0.34086074  0.27573227     0.97900
O9          O  0.78870183  0.32587485  0.29683630    -0.70600
O10         O  0.75119753  0.35392398  0.32847892    -0.74100
Al11       Al  0.75121510  0.31733251  0.31026240     1.49000
C12         C  0.73004994  0.36954784  0.33273859     0.93200
O13         O  0.71215303  0.38056208  0.26275277    -0.80400
O14         O  0.72043961  0.30529408  0.22643104    -0.73900
Al15       Al  0.70001130  0.34628083  0.28155237     1.90100
O16         O  0.73756668  0.36111636  0.22706797    -0.73000
O17         O  0.76766673  0.29066185  0.25006111    -0.72800
O18         O  0.78312638  0.34718095  0.25410832    -0.78500
O19         O  0.75279729  0.27942950  0.29509631    -0.76700
O20         O  0.73383032  0.32997323  0.27811052    -1.12800
O21         O  0.71824259  0.30594364  0.33145230    -0.72000
C22         C  0.69268660  0.30353445  0.32521428     0.98700
C23         C  0.72604847  0.38263764  0.23880050     0.95100
Al24       Al  0.75064073  0.32639139  0.24250792     1.55600
O25         O  0.70769505  0.36539463  0.31849957    -0.76700
C26         C  0.76330977  0.27240454  0.27012194     0.99200
C27         C  0.69521927  0.31289997  0.22577674     0.94100
O28         O  0.68562595  0.33077727  0.24460702    -0.82000
C29         C  0.79375301  0.54653299  0.03870109     0.80600
N30         N  0.78350796  0.53995535  0.50844075    -0.77700
C31         C  0.77354703  0.51287616  0.50523331     0.83000
N32         N  0.77648262  0.49135054  0.03439397    -0.77700
C33         C  0.77759409  0.50424576  0.06148784     0.83100
N34         N  0.78616035  0.53187360  0.06357958    -0.79400
C35         C  0.79262389  0.05511050  0.27365277     0.80600
N36         N  0.80340208  0.04359625  0.24803307    -0.77700
C37         C  0.81511122  0.01725010  0.24835999     0.83000
N38         N  0.81644578  0.00283285  0.27451843    -0.77700
C39         C  0.80572635  0.01436284  0.30004087     0.83100
N40         N  0.79349681  0.04026295  0.29940856    -0.79400
O41         O  0.86615332  0.86981086  0.06437828    -0.81400
C42         C  0.83110486  0.76339186  0.02029060     0.97900
O43         O  0.84208542  0.77266358  0.04388630    -0.70600
O44         O  0.87154232  0.80634663  0.07846456    -0.74100
Al45       Al  0.83615999  0.80994423  0.05969194     1.49000
C46         C  0.89647420  0.81130491  0.07023499     0.93200
O47         O  0.89196332  0.83870016  0.48589185    -0.80400
O48         O  0.83665371  0.85752926  0.46830709    -0.73900
Al49       Al  0.87810007  0.85148354  0.02766699     1.90100
O50         O  0.86188366  0.80585717  0.47079918    -0.73000
O51         O  0.79426060  0.83727286  0.49934106    -0.72800
O52         O  0.81736722  0.78394877  0.49634479    -0.78500
O53         O  0.79718721  0.80990535  0.04880212    -0.76700
O54         O  0.84901403  0.82698001  0.02658971    -1.12800
O55         O  0.82904982  0.84488119  0.07893091    -0.72000
C56         C  0.84474262  0.86652848  0.08117130     0.98700
C57         C  0.88592841  0.81715222  0.46982174     0.95100
Al58       Al  0.82897100  0.82195406  0.48662743     1.55600
O59         O  0.90170647  0.82604032  0.04753670    -0.76700
C60         C  0.78438219  0.82309385  0.02869747     0.99200
C61         C  0.84508764  0.88142887  0.47779256     0.94100
O62         O  0.85714364  0.88357191  0.50242773    -0.82000
C63         C  0.06433950  0.78346080  0.26363119     0.80600
N64         N  0.04501051  0.77733347  0.24257969    -0.77700
C65         C  0.01749374  0.77441699  0.25042929     0.83000
N66         N  0.00947115  0.77766970  0.27937655    -0.77700
C67         C  0.02871388  0.78372965  0.30053644     0.83100
N68         N  0.05603281  0.78692428  0.29254979    -0.79400
C69         C  0.26795880  0.09255580  0.23151891     0.80600
N70         N  0.26878627  0.10409315  0.20366372    -0.77700
C71         C  0.25671839  0.12983205  0.19871561     0.83000
N72         N  0.24424879  0.14405525  0.22179019    -0.77700
C73         C  0.24368019  0.13293942  0.24958244     0.83100
N74         N  0.25551589  0.10713842  0.25435148    -0.79400
O75         O  0.18625161  0.32420554  0.44431589    -0.81400
C76         C  0.30016621  0.30756739  0.97452587     0.97900
O77         O  0.29126077  0.31616822  0.45177535    -0.70600
O78         O  0.25539791  0.27962454  0.42942748    -0.74100
Al79       Al  0.25424549  0.31934056  0.43669950     1.49000
C80         C  0.23399204  0.26386048  0.42718428     0.93200
O81         O  0.21342454  0.26750807  0.99766644    -0.80400
O82         O  0.21963875  0.34741315  0.01732682    -0.73900
Al83       Al  0.20154228  0.29643004  0.97157082     1.90100
O84         O  0.23969610  0.29322427  0.02774831    -0.73000
O85         O  0.26530550  0.36135100  0.98806688    -0.72800
O86         O  0.28489919  0.30608313  0.99754783    -0.78500
O87         O  0.25489964  0.35932535  0.44076251    -0.76700
O88         O  0.23512604  0.31398282  0.97108425    -1.12800
O89         O  0.22192381  0.32398744  0.41283043    -0.72000
C90         C  0.19653312  0.32920562  0.41867129     0.98700
C91         C  0.22693771  0.27016491  0.02146866     0.95100
Al92       Al  0.25100551  0.32599805  0.00475795     1.55600
O93         O  0.21078806  0.27103245  0.43901145    -0.76700
C94         C  0.26178556  0.37320417  0.96304826     0.99200
C95         C  0.19465961  0.33893888  0.01970781     0.94100
O96         O  0.18591664  0.31802468  0.00437273    -0.82000
C97         C  0.00999677  0.37173585  0.22390332     0.80600
N98         N  0.02478280  0.37227929  0.19784911    -0.77700
C99         C  0.05303072  0.36901234  0.19743279     0.83000
N100        N  0.06668958  0.36508867  0.22355322    -0.77700
C101        C  0.05199977  0.36452775  0.24990204     0.83100
N102        N  0.02369486  0.36769482  0.24986412    -0.79400
C103        C  0.31804715  0.58914104  0.97964448     0.80600
N104        N  0.32755551  0.59911225  0.45063573    -0.77700
C105        C  0.33585276  0.62665093  0.44627252     0.83000
N106        N  0.33595878  0.64346294  0.97024893    -0.77700
C107        C  0.33137317  0.63427223  0.99843458     0.83100
N108        N  0.32242369  0.60704231  0.00314144    -0.79400
O109        O  0.35917751  0.76553194  0.20866176    -0.81400
C110        C  0.31683650  0.87773542  0.22267811     0.97900
O111        O  0.31051551  0.86007844  0.20241901    -0.70600
O112        O  0.35676812  0.84259229  0.17654292    -0.74100
Al113      Al  0.32527674  0.82319695  0.19255260     1.49000
C114        C  0.38135670  0.83309860  0.17487118     0.93200
O115        O  0.39346071  0.82731436  0.24974666    -0.80400
O116        O  0.32265843  0.79437473  0.27790319    -0.73900
Al117      Al  0.37392932  0.79797226  0.22879831     1.90100
O118        O  0.35951852  0.83917884  0.28080423    -0.73000
O119        O  0.28819090  0.82616560  0.24799943    -0.72800
O120        O  0.32765480  0.86940276  0.24655996    -0.78500
O121        O  0.29180536  0.80414109  0.20485566    -0.76700
O122        O  0.34186790  0.81739922  0.22732543    -1.12800
O123        O  0.33618695  0.78817294  0.17445972    -0.72000
C124        C  0.34682815  0.76558095  0.18412770     0.98700
C125        C  0.38507961  0.83906920  0.27360981     0.95100
Al126      Al  0.32588666  0.83114178  0.26052657     1.55600
O127        O  0.38945165  0.81370163  0.19229840    -0.76700
C128        C  0.27738646  0.81153617  0.22731401     0.99200
C129        C  0.34202745  0.77641860  0.28052597     0.94100
O130        O  0.36441452  0.77836056  0.26506427    -0.82000
C131        C  0.57291563  0.84896754  0.97599563     0.80600
N132        N  0.55761262  0.84992888  0.00173360    -0.77700
C133        C  0.52925936  0.85143969  0.00120320     0.83000
N134        N  0.51601200  0.85195324  0.97454093    -0.77700
C135        C  0.52625720  0.85143518  0.44765500     0.83100
N136        N  0.55461563  0.85393547  0.44822228    -0.79400
C137        C  0.47073422  0.84832324  0.38625601     0.19000
C138        C  0.44447391  0.86083553  0.38249758    -0.19000
C139        C  0.43053891  0.85810254  0.35543373    -0.11300
C140        C  0.44262564  0.84258690  0.33145910     0.21300
C141        C  0.46876652  0.82977764  0.33543384    -0.20700
C142        C  0.48273947  0.83262416  0.36247528    -0.11500
C143        C  0.42742285  0.83674571  0.30331395    -0.15700
C144        C  0.40481449  0.85139571  0.29498484    -0.29500
C145        C  0.48441707  0.85072236  0.41565580    -0.03800
C146        C  0.51239974  0.85038523  0.41851695    -0.40300
H147        H  0.43459220  0.87258787  0.40067429     0.12500
H148        H  0.40993742  0.86735206  0.35402453     0.12100
H149        H  0.47821619  0.81709758  0.31769428     0.11500
H150        H  0.50250188  0.82177978  0.36494761     0.11800
H151        H  0.43361621  0.81807695  0.29027867     0.14500
H152        H  0.39776249  0.86987020  0.30762585     0.13300
H153        H  0.47111482  0.85357220  0.43535035     0.11000
H154        H  0.52586915  0.84951865  0.39877871     0.13000
C155        C  0.43904487  0.83724933  0.11404513     0.19000
C156        C  0.46647947  0.82707518  0.11082726    -0.19000
C157        C  0.48192235  0.83178639  0.08457373    -0.11300
C158        C  0.47018486  0.84681854  0.06077264     0.21300
C159        C  0.44263427  0.85677489  0.06382180    -0.20700
C160        C  0.42718403  0.85212953  0.09016526    -0.11500
C161        C  0.48548044  0.85067280  0.03191436    -0.15700
C162        C  0.51362716  0.85086866  0.02982756    -0.29500
C163        C  0.42282904  0.82985167  0.14154710    -0.03800
C164        C  0.39982468  0.84393601  0.15077694    -0.40300
H165        H  0.47588949  0.81503630  0.12857527     0.12500
H166        H  0.50266605  0.82272852  0.08273323     0.12100
H167        H  0.43292484  0.86791194  0.04562321     0.11500
H168        H  0.40573210  0.85939318  0.09119704     0.11800
H169        H  0.47322147  0.85323573  0.01189310     0.14500
H170        H  0.52603492  0.84989187  0.04987144     0.13300
H171        H  0.42967170  0.81150756  0.15418251     0.11000
H172        H  0.39287548  0.86263772  0.13891018     0.13000
C173        C  0.35802049  0.71464095  0.33353708     0.19000
C174        C  0.38244549  0.70894130  0.34936233    -0.19000
C175        C  0.38150507  0.69091821  0.37403348    -0.11300
C176        C  0.35632954  0.67745417  0.38271503     0.21300
C177        C  0.33201116  0.68217271  0.36619919    -0.20700
C178        C  0.33280619  0.70075890  0.34185252    -0.11500
C179        C  0.35534586  0.66153536  0.41105478    -0.15700
C180        C  0.33892981  0.63845735  0.41595856    -0.29500
C181        C  0.35966426  0.73559114  0.30893779    -0.03800
C182        C  0.33858932  0.75335892  0.30261012    -0.40300
H183        H  0.40210948  0.71931666  0.34329065     0.12500
H184        H  0.40040482  0.68779388  0.38666456     0.12100
H185        H  0.31218699  0.67247589  0.37282733     0.11500
H186        H  0.31372764  0.70434732  0.32972039     0.11800
H187        H  0.36862531  0.66948872  0.42884536     0.14500
H188        H  0.32723437  0.62872330  0.39787894     0.13300
H189        H  0.37979518  0.73826148  0.29752254     0.11000
H190        H  0.31891519  0.75213180  0.31509179     0.13000
C191        C  0.33085208  0.71473035  0.11865111     0.19000
C192        C  0.32051020  0.72020132  0.09018551    -0.19000
C193        C  0.31972636  0.69875593  0.06859096    -0.11300
C194        C  0.32942479  0.67123571  0.07491696     0.21300
C195        C  0.33888121  0.66530225  0.10364938    -0.20700
C196        C  0.33978566  0.68692360  0.12539511    -0.11500
C197        C  0.32927436  0.64859231  0.05173454    -0.15700
C198        C  0.33437002  0.65492208  0.02299014    -0.29500
C199        C  0.33157839  0.73891056  0.14011627    -0.03800
C200        C  0.34546201  0.73923124  0.16599281    -0.40300
H201        H  0.31313192  0.74127883  0.08449794     0.12500
H202        H  0.31126597  0.70374076  0.04699100     0.12100
H203        H  0.34598958  0.64407270  0.10908651     0.11500
H204        H  0.34728364  0.68162205  0.14727163     0.11800
H205        H  0.32511120  0.62664944  0.05836140     0.14500
H206        H  0.34024119  0.67661848  0.01686092     0.13300
H207        H  0.32090633  0.75822140  0.13342563     0.11000
H208        H  0.35679065  0.72071830  0.17350557     0.13000
C209        C  0.30467120  0.50899417  0.46768977     0.19000
C210        C  0.30505646  0.49013815  0.44316725    -0.19000
C211        C  0.29788566  0.46130057  0.44666887    -0.11300
C212        C  0.27947005  0.45273258  0.97687986     0.21300
C213        C  0.29380174  0.46769056  0.99925235    -0.20700
C214        C  0.30147196  0.49632861  0.99537796    -0.11500
C215        C  0.27287007  0.42194977  0.98144596    -0.15700
C216        C  0.26791496  0.40377770  0.95876863    -0.29500
C217        C  0.31235578  0.53956110  0.46257650    -0.03800
C218        C  0.30870744  0.55959263  0.98549257    -0.40300
H219        H  0.31109345  0.49770633  0.42118205     0.12500
H220        H  0.29908015  0.44740939  0.42730735     0.12100
H221        H  0.29969773  0.45697493  0.01952587     0.11500
H222        H  0.31347679  0.50671551  0.01268314     0.11800
H223        H  0.27315656  0.41376487  0.00406967     0.14500
H224        H  0.26799361  0.41216291  0.43609014     0.13300
H225        H  0.31578072  0.54623006  0.43962188     0.11000
H226        H  0.30606072  0.55345035  0.00865763     0.13000
C227        C  0.10924992  0.36001824  0.13496509     0.19000
C228        C  0.13811893  0.36552870  0.13188183    -0.19000
C229        C  0.15211066  0.36050557  0.10468625    -0.11300
C230        C  0.13748308  0.34959543  0.07995770     0.21300
C231        C  0.10865431  0.34404398  0.08304907    -0.20700
C232        C  0.09462638  0.34926242  0.11014883    -0.11500
C233        C  0.15220367  0.34080475  0.05192566    -0.15700
C234        C  0.17664048  0.35253589  0.04269374    -0.29500
C235        C  0.09543165  0.36373649  0.16476540    -0.03800
C236        C  0.06773147  0.36813757  0.16817024    -0.40300
H237        H  0.14997860  0.37333228  0.15072980     0.12500
H238        H  0.17455526  0.36404997  0.10356407     0.12100
H239        H  0.09703904  0.33507005  0.06457507     0.11500
H240        H  0.07259098  0.34372550  0.11179522     0.11800
H241        H  0.14332653  0.32301574  0.03939207     0.14500
H242        H  0.18527249  0.37086620  0.05449740     0.13300
H243        H  0.10844646  0.36272608  0.18440601     0.11000
H244        H  0.05483492  0.37070135  0.14866244     0.13000
C245        C  0.10767243  0.35542098  0.31100563     0.19000
C246        C  0.13363427  0.36867468  0.31623715    -0.19000
C247        C  0.14755497  0.36453332  0.34308193    -0.11300
C248        C  0.13618171  0.34624661  0.36513247     0.21300
C249        C  0.10993601  0.33337390  0.36008748    -0.20700
C250        C  0.09583925  0.33780004  0.33331742    -0.11500
C251        C  0.15161767  0.33921488  0.39288085    -0.15700
C252        C  0.17976885  0.34058097  0.39409112    -0.29500
C253        C  0.09393830  0.35983447  0.28179862    -0.03800
C254        C  0.06591686  0.35956881  0.27868698    -0.40300
H255        H  0.14311160  0.38249946  0.29953374     0.12500
H256        H  0.16719252  0.37576994  0.34634245     0.12100
H257        H  0.10065274  0.31919475  0.37657601     0.11500
H258        H  0.07610695  0.32675865  0.32983999     0.11800
H259        H  0.13992143  0.33005395  0.41155183     0.14500
H260        H  0.19176639  0.34750199  0.37465990     0.13300
H261        H  0.10727785  0.36484832  0.26262416     0.11000
H262        H  0.05241952  0.35648541  0.29815109     0.13000
C263        C  0.24472358  0.21999873  0.08603883     0.19000
C264        C  0.26919930  0.20679677  0.09589727    -0.19000
C265        C  0.26798630  0.18719998  0.11941577    -0.11300
C266        C  0.24226125  0.18104934  0.13389464     0.21300
C267        C  0.21781862  0.19405342  0.12377332    -0.20700
C268        C  0.21894497  0.21310918  0.09994171    -0.11500
C269        C  0.24050054  0.16420604  0.16176473    -0.15700
C270        C  0.25813233  0.14307130  0.16884352    -0.29500
C271        C  0.24661670  0.24263866  0.06304565    -0.03800
C272        C  0.22659002  0.24617350  0.04265136    -0.40300
H273        H  0.28932938  0.21203344  0.08569995     0.12500
H274        H  0.28730535  0.17806609  0.12716033     0.12100
H275        H  0.19783299  0.18998529  0.13486044     0.11500
H276        H  0.19981578  0.22344457  0.09333765     0.11800
H277        H  0.22369274  0.16972278  0.17738463     0.14500
H278        H  0.27378961  0.13563315  0.15281420     0.13300
H279        H  0.26499025  0.25656985  0.06276546     0.11000
H280        H  0.20943237  0.23080692  0.04121249     0.13000
C281        C  0.22677214  0.16221056  0.32799971     0.19000
C282        C  0.24222692  0.16109171  0.35431214    -0.19000
C283        C  0.23758536  0.18095550  0.37719593    -0.11300
C284        C  0.21710206  0.20209664  0.37425694     0.21300
C285        C  0.20037642  0.20210327  0.34883110    -0.20700
C286        C  0.20523391  0.18242843  0.32575993    -0.11500
C287        C  0.21383056  0.22524302  0.39659948    -0.15700
C288        C  0.23624040  0.23755947  0.40932043    -0.29500
C289        C  0.23448437  0.14272045  0.30305326    -0.03800
C290        C  0.23161214  0.14997033  0.27431821    -0.40300
H291        H  0.25864681  0.14546071  0.35671579     0.12500
H292        H  0.25028504  0.18004084  0.39697108     0.12100
H293        H  0.18425788  0.21804320  0.34632796     0.11500
H294        H  0.19229167  0.18327546  0.30618458     0.11800
H295        H  0.19321761  0.23462645  0.39981962     0.14500
H296        H  0.25718985  0.22997920  0.40388101     0.13300
H297        H  0.24554797  0.12326451  0.30843747     0.11000
H298        H  0.22224517  0.17023159  0.26863127     0.13000
C299        C  0.30092701  0.01792193  0.22171442     0.19000
C300        C  0.30239480  0.99895104  0.19740625    -0.19000
C301        C  0.30899060  0.97025411  0.20158213    -0.11300
C302        C  0.31425453  0.95983672  0.23033554     0.21300
C303        C  0.31437729  0.97914462  0.25441988    -0.20700
C304        C  0.30776794  0.00790107  0.25023369    -0.11500
C305        C  0.31989905  0.92915026  0.23591508    -0.15700
C306        C  0.31104879  0.90814433  0.21763329    -0.29500
C307        C  0.29178175  0.04772213  0.21633692    -0.03800
C308        C  0.27979969  0.06417062  0.23760173    -0.40300
H309        H  0.29784638  0.00622820  0.17512606     0.12500
H310        H  0.31001900  0.95645538  0.18215338     0.12100
H311        H  0.31907277  0.97184402  0.27665312     0.11500
H312        H  0.30807071  0.02208540  0.26937965     0.11800
H313        H  0.33084610  0.92363109  0.25613247     0.14500
H314        H  0.29912344  0.91311799  0.19797038     0.13300
H315        H  0.29303355  0.05557361  0.19359531     0.11000
H316        H  0.27715133  0.05620382  0.26013978     0.13000
C317        C  0.14349365  0.79852345  0.26748517     0.19000
C318        C  0.15637885  0.78718524  0.24160521    -0.19000
C319        C  0.18488095  0.79213077  0.23581873    -0.11300
C320        C  0.20099407  0.80833198  0.25596231     0.21300
C321        C  0.18799439  0.81948763  0.28174835    -0.20700
C322        C  0.15962284  0.81452214  0.28751261    -0.11500
C323        C  0.23126578  0.81441844  0.25146880    -0.15700
C324        C  0.24746880  0.80376251  0.22928543    -0.29500
C325        C  0.11356992  0.79366807  0.27501049    -0.03800
C326        C  0.09400445  0.78698762  0.25483125    -0.40300
H327        H  0.14476710  0.77409466  0.22602870     0.12500
H328        H  0.19391819  0.78315879  0.21563881     0.12100
H329        H  0.19986901  0.83204513  0.29764820     0.11500
H330        H  0.15019836  0.82336406  0.30766652     0.11800
H331        H  0.24085749  0.82861954  0.26777118     0.14500
H332        H  0.23911272  0.78958037  0.21235724     0.13300
H333        H  0.10724502  0.79691782  0.29818272     0.11000
H334        H  0.09946754  0.78479924  0.23135476     0.13000
C335        C  0.64897787  0.84382943  0.00378284     0.19000
C336        C  0.66103512  0.83398574  0.03012301    -0.19000
C337        C  0.69016720  0.83201250  0.03254824    -0.11300
C338        C  0.70412792  0.84674938  0.50227578     0.21300
C339        C  0.69144446  0.86063643  0.47837197    -0.20700
C340        C  0.66227080  0.86307036  0.47718522    -0.11500
C341        C  0.73521701  0.84378903  0.50176988    -0.15700
C342        C  0.75369095  0.82620430  0.03121572    -0.29500
C343        C  0.61795200  0.84571805  0.00227839    -0.03800
C344        C  0.60377544  0.84699123  0.97655444    -0.40300
H345        H  0.64783848  0.82762288  0.04886590     0.12500
H346        H  0.69839136  0.82429293  0.05326237     0.12100
H347        H  0.70416561  0.86960101  0.46045289     0.11500
H348        H  0.65341640  0.87427784  0.45859899     0.11800
H349        H  0.74635658  0.85043849  0.48160000     0.14500
H350        H  0.74338177  0.81756855  0.05090971     0.13300
H351        H  0.60629436  0.84533430  0.02330444     0.11000
H352        H  0.60978102  0.85766830  0.45292524     0.13000
C353        C  0.98028038  0.76667132  0.17550509     0.19000
C354        C  0.98807853  0.77587598  0.14685933    -0.19000
C355        C  0.96776216  0.78059600  0.12539459    -0.11300
C356        C  0.93910670  0.77618337  0.13225880     0.21300
C357        C  0.93160337  0.76486558  0.16020075    -0.20700
C358        C  0.95193882  0.76002956  0.18160303    -0.11500
C359        C  0.91630206  0.78403847  0.11170105    -0.15700
C360        C  0.92009644  0.80086750  0.08774505    -0.29500
C361        C  0.00197486  0.76596480  0.19878368    -0.03800
C362        C  0.99581721  0.76995831  0.22785802    -0.40300
H363        H  0.00985965  0.78053190  0.14142288     0.12500
H364        H  0.97478944  0.78810060  0.10379164     0.12100
H365        H  0.90980043  0.76058277  0.16586892     0.11500
H366        H  0.94525720  0.75159634  0.20298820     0.11800
H367        H  0.89509866  0.77723333  0.11769920     0.14500
H368        H  0.94076520  0.80865651  0.08133244     0.13300
H369        H  0.02381560  0.76513555  0.19152304     0.11000
H370        H  0.97420149  0.77203801  0.23541239     0.13000
C371        C  0.98351170  0.78590066  0.37167505     0.19000
C372        C  0.96478068  0.76688145  0.38567960    -0.19000
C373        C  0.94941592  0.77542105  0.41086066    -0.11300
C374        C  0.95200784  0.80352191  0.42201344     0.21300
C375        C  0.97204569  0.82195291  0.40913255    -0.20700
C376        C  0.98763972  0.81329950  0.38407070    -0.11500
C377        C  0.93288540  0.81474838  0.44561113    -0.15700
C378        C  0.90649893  0.80486076  0.44880607    -0.29500
C379        C  0.99565075  0.77787952  0.34233732    -0.03800
C380        C  0.01986800  0.78872943  0.33164383    -0.40300
H381        H  0.96145967  0.74560394  0.37660617     0.12500
H382        H  0.93506040  0.76018468  0.42102415     0.12100
H383        H  0.97454898  0.84360364  0.41747466     0.11500
H384        H  0.00159275  0.82866337  0.37348118     0.11800
H385        H  0.93972433  0.83305260  0.45877255     0.14500
H386        H  0.89896077  0.78764378  0.43460741     0.13300
H387        H  0.98372985  0.76296547  0.32866308     0.11000
H388        H  0.03327660  0.80176323  0.34573232     0.13000
C389        C  0.83722967  0.95999512  0.19109582     0.19000
C390        C  0.83054197  0.93080984  0.19040857    -0.19000
C391        C  0.83577964  0.91451539  0.16487398    -0.11300
C392        C  0.84798564  0.92707492  0.13931194     0.21300
C393        C  0.85536447  0.95618146  0.14015369    -0.20700
C394        C  0.84980993  0.97266378  0.16578315    -0.11500
C395        C  0.85409922  0.90964823  0.11223686    -0.15700
C396        C  0.83778436  0.88721183  0.10490768    -0.29500
C397        C  0.83139567  0.97594080  0.21906390    -0.03800
C398        C  0.82467372  0.00375792  0.22015973    -0.40300
H399        H  0.82114475  0.92052987  0.20976836     0.12500
H400        H  0.83081774  0.89191307  0.16552055     0.12100
H401        H  0.86525253  0.96617275  0.12091329     0.11500
H402        H  0.85584398  0.99501573  0.16594948     0.11800
H403        H  0.87233179  0.91507542  0.09849648     0.14500
H404        H  0.81875571  0.88285301  0.11779155     0.13300
H405        H  0.83022194  0.96346836  0.23942155     0.11000
H406        H  0.82405263  0.01621330  0.19984204     0.13000
C407        C  0.82539671  0.96293639  0.36175159     0.19000
C408        C  0.85049331  0.95685208  0.37613759    -0.19000
C409        C  0.85024853  0.93958193  0.40141885    -0.11300
C410        C  0.82489392  0.92766875  0.41215235     0.21300
C411        C  0.79984562  0.93372028  0.39769786    -0.20700
C412        C  0.80000564  0.95149239  0.37288605    -0.11500
C413        C  0.82455075  0.90598281  0.43577042    -0.15700
C414        C  0.84215222  0.90664142  0.45883202    -0.29500
C415        C  0.82611771  0.97976182  0.33409554    -0.03800
C416        C  0.80606216  0.99864052  0.32815644    -0.40300
H417        H  0.87027991  0.96523838  0.36761589     0.12500
H418        H  0.86997993  0.93448030  0.41165973     0.12100
H419        H  0.78021113  0.92423475  0.40530878     0.11500
H420        H  0.78044388  0.95533330  0.36170775     0.11800
H421        H  0.80984960  0.88822418  0.43341746     0.14500
H422        H  0.85557657  0.92513087  0.46273805     0.13300
H423        H  0.84377307  0.97709878  0.31870925     0.11000
H424        H  0.78987436  0.00334637  0.34476764     0.13000
C425        C  0.83286793  0.68154907  0.02797528     0.19000
C426        C  0.83613035  0.66320288  0.05221722    -0.19000
C427        C  0.83008868  0.63407401  0.04944028    -0.11300
C428        C  0.81465704  0.62731416  0.52077150     0.21300
C429        C  0.81484139  0.64469276  0.49545165    -0.20700
C430        C  0.82145671  0.67370127  0.49777007    -0.11500
C431        C  0.80574236  0.59708220  0.51744966    -0.15700
C432        C  0.80298856  0.57644294  0.04194145    -0.29500
C433        C  0.83792829  0.71260812  0.03259796    -0.03800
C434        C  0.82747479  0.73261874  0.01470979    -0.40300
H435        H  0.84293327  0.67151474  0.07355872     0.12500
H436        H  0.83305635  0.62063137  0.06863295     0.12100
H437        H  0.80930896  0.63591290  0.47387621     0.11500
H438        H  0.82145195  0.68634137  0.47767487     0.11800
H439        H  0.80599759  0.58794891  0.49508059     0.14500
H440        H  0.80142177  0.58573352  0.06414410     0.13300
H441        H  0.84940477  0.71929818  0.05225538     0.11000
H442        H  0.80978847  0.72988806  0.49226368     0.13000
C443        C  0.93156598  0.37252602  0.24833418     0.19000
C444        C  0.91749768  0.37275338  0.27609362    -0.19000
C445        C  0.88829332  0.37013387  0.27795807    -0.11300
C446        C  0.87236880  0.36694088  0.25196280     0.21300
C447        C  0.88623186  0.36800298  0.22414705    -0.20700
C448        C  0.91547164  0.37061013  0.22225431    -0.11500
C449        C  0.84152884  0.36162793  0.25290005    -0.15700
C450        C  0.82809764  0.34982022  0.27647302    -0.29500
C451        C  0.96287332  0.37283012  0.24804445    -0.03800
C452        C  0.97911235  0.37417786  0.22322730    -0.40300
H453        H  0.92920252  0.37452727  0.29655185     0.12500
H454        H  0.87841101  0.37053140  0.29982883     0.12100
H455        H  0.87446457  0.36586721  0.20376111     0.11500
H456        H  0.92508042  0.37028983  0.20029628     0.11800
H457        H  0.82991823  0.36528542  0.23262586     0.14500
H458        H  0.83956354  0.34433966  0.29629478     0.13300
H459        H  0.97305595  0.37108693  0.26946699     0.11000
H460        H  0.96990145  0.37650686  0.20147752     0.13000
C461        C  0.77731292  0.13315759  0.25752845     0.19000
C462        C  0.79528440  0.15442075  0.24623805    -0.19000
C463        C  0.79075304  0.18304343  0.25354435    -0.11300
C464        C  0.76771951  0.19087044  0.27180670     0.21300
C465        C  0.74927412  0.16962766  0.28229757    -0.20700
C466        C  0.75384240  0.14102110  0.27502602    -0.11500
C467        C  0.76240893  0.22089141  0.28047141    -0.15700
C468        C  0.77068066  0.24276113  0.26328091    -0.29500
C469        C  0.78484719  0.10292325  0.25286218    -0.03800
C470        C  0.78064716  0.08379944  0.27461001    -0.40300
H471        H  0.81355758  0.14876326  0.23286176     0.12500
H472        H  0.80584076  0.19875102  0.24562240     0.12100
H473        H  0.73128695  0.17519200  0.29615410     0.11500
H474        H  0.73919249  0.12507596  0.28340906     0.11800
H475        H  0.74974992  0.22501658  0.30040294     0.14500
H476        H  0.78153651  0.23887805  0.24220223     0.13300
H477        H  0.79716567  0.09717034  0.23314698     0.11000
H478        H  0.77044965  0.09020890  0.29540775     0.13000
C479        C  0.75798513  0.43890614  0.18679460     0.19000
C480        C  0.78026067  0.43601631  0.16623072    -0.19000
C481        C  0.78448352  0.45599450  0.14383748    -0.11300
C482        C  0.76664254  0.47948463  0.14166528     0.21300
C483        C  0.74552251  0.48368055  0.16333101    -0.20700
C484        C  0.74097061  0.46332025  0.18571460    -0.11500
C485        C  0.76935806  0.49855125  0.11576679    -0.15700
C486        C  0.77161700  0.48725241  0.08822214    -0.29500
C487        C  0.75296665  0.41488112  0.20744674    -0.07800
C488        C  0.72956453  0.41035735  0.22392483    -0.40300
H489        H  0.79387997  0.41761869  0.16675309     0.12500
H490        H  0.80134254  0.45275054  0.12770695     0.12100
H491        H  0.73182223  0.50195807  0.16211383     0.11500
H492        H  0.72396747  0.46656513  0.20157405     0.11800
H493        H  0.76917157  0.52155268  0.11923496     0.14500
H494        H  0.76972367  0.46423212  0.08520430     0.13300
H495        H  0.76901128  0.39847468  0.20738925     0.11000
H496        H  0.71309171  0.42609100  0.22593781     0.13000
C497        C  0.75519164  0.45914830  0.44345645     0.19000
C498        C  0.73081365  0.44342004  0.43728981    -0.19000
C499        C  0.73002493  0.42473586  0.41299394    -0.11300
C500        C  0.75380013  0.42124963  0.39440766     0.21300
C501        C  0.77828365  0.43694632  0.40058160    -0.20700
C502        C  0.77895885  0.45597392  0.42480003    -0.11500
C503        C  0.75400863  0.39997991  0.36979488    -0.15700
C504        C  0.73061463  0.39252915  0.35522192    -0.29500
C505        C  0.75593703  0.47596767  0.47140305    -0.03800
C506        C  0.77208289  0.49930201  0.47553045    -0.40300
H507        H  0.71245779  0.44515138  0.45173933     0.12500
H508        H  0.71111801  0.41224938  0.40960435     0.12100
H509        H  0.79698246  0.43422212  0.38684421     0.11500
H510        H  0.79834009  0.46719740  0.42958617     0.11800
H511        H  0.77388364  0.39024982  0.36353621     0.14500
H512        H  0.71105028  0.40348674  0.35992305     0.13300
H513        H  0.74228841  0.46867906  0.48952496     0.11000
H514        H  0.78428706  0.50835002  0.45718932     0.13000
C515        C  0.61057937  0.29745173  0.11017617     0.19000
C516        C  0.63736810  0.28614788  0.11430674    -0.19000
C517        C  0.65176472  0.29113719  0.14086295    -0.11300
C518        C  0.63966547  0.30778539  0.16397908     0.21300
C519        C  0.61307054  0.31951198  0.15953608    -0.20700
C520        C  0.59865951  0.31443721  0.13303674    -0.11500
C521        C  0.65473471  0.31519678  0.19199421    -0.15700
C522        C  0.67778335  0.30167615  0.20129438    -0.29500
C523        C  0.59607348  0.29200643  0.08146288    -0.03800
C524        C  0.56796223  0.29178586  0.07928880    -0.40300
H525        H  0.64722768  0.27339690  0.09687857     0.12500
H526        H  0.67258219  0.28246852  0.14263927     0.12100
H527        H  0.60346506  0.33292097  0.17657497     0.11500
H528        H  0.57850646  0.32443779  0.13031990     0.11800
H529        H  0.64710074  0.33335485  0.20492380     0.14500
H530        H  0.68583750  0.28336144  0.18908265     0.13300
H531        H  0.60886307  0.28704606  0.06185269     0.11000
H532        H  0.55501381  0.29493170  0.09915019     0.13000
C533        C  0.63422584  0.29349017  0.38374655     0.19000
C534        C  0.60628105  0.30214198  0.38758158    -0.19000
C535        C  0.59260480  0.29977319  0.41532789    -0.11300
C536        C  0.60662977  0.28860840  0.44003113     0.21300
C537        C  0.63452601  0.27996073  0.43626544    -0.20700
C538        C  0.64818857  0.28226319  0.40853395    -0.11500
C539        C  0.59329359  0.28686629  0.47023580    -0.15700
C540        C  0.56539547  0.28463902  0.47450103    -0.29500
C541        C  0.64895533  0.29974151  0.35484139    -0.03800
C542        C  0.67428243  0.28926523  0.34731528    -0.40300
H543        H  0.59517187  0.31145360  0.36918523     0.12500
H544        H  0.57139827  0.30762009  0.41747773     0.12100
H545        H  0.64593727  0.27166689  0.45498667     0.11500
H546        H  0.66998463  0.27624359  0.40722823     0.11800
H547        H  0.60691402  0.28660345  0.48944182     0.14500
H548        H  0.55170591  0.28335693  0.45542564     0.13300
H549        H  0.63986601  0.31582527  0.34061796     0.11000
H550        H  0.68400789  0.27333449  0.36107929     0.13000
C551        C  0.43185346  0.28025671  0.50934595     0.19000
C552        C  0.41821488  0.27469633  0.48238412    -0.19000
C553        C  0.38922476  0.27774447  0.48027068    -0.11300
C554        C  0.37299877  0.28420990  0.00090968     0.21300
C555        C  0.38627943  0.28508663  0.02859250    -0.20700
C556        C  0.41531003  0.28160377  0.03041839    -0.11500
C557        C  0.34244266  0.29008839  0.99977045    -0.15700
C558        C  0.32994344  0.29958119  0.97509553    -0.29500
C559        C  0.46298983  0.27898510  0.50942660    -0.03800
C560        C  0.47894709  0.28014951  0.02842670    -0.40300
H561        H  0.43009953  0.26824360  0.46270301     0.12500
H562        H  0.37958229  0.27296415  0.45911861     0.12100
H563        H  0.37423707  0.28917378  0.04885031     0.11500
H564        H  0.42447243  0.28282347  0.05225282     0.11800
H565        H  0.33020826  0.28826866  0.02035029     0.14500
H566        H  0.34249321  0.30130816  0.45714677     0.13300
H567        H  0.47355284  0.27801862  0.48778144     0.11000
H568        H  0.46954909  0.28471895  0.05004738     0.13000
C569        C  0.50959992  0.28060979  0.53247596     0.80600
N570        N  0.52383105  0.27875957  0.00005025    -0.77700
C571        C  0.55226078  0.28075362  0.99867986     0.83000
N572        N  0.56688486  0.28475776  0.02429357    -0.77700
C573        C  0.55288337  0.28455543  0.55688282     0.83100
N574        N  0.52447061  0.28233949  0.55794639    -0.79400
O575        O  0.68934094  0.31418365  0.80132716    -0.81400
C576        C  0.80354390  0.34021284  0.77294803     0.97900
O577        O  0.79472710  0.32458057  0.79398881    -0.70600
O578        O  0.75812688  0.35250847  0.82706140    -0.74100
Al579      Al  0.75753446  0.31599396  0.80847337     1.49000
C580        C  0.73709262  0.36811081  0.83210863     0.93200
O581        O  0.71903706  0.37966690  0.76176471    -0.80400
O582        O  0.72520734  0.30325982  0.72615695    -0.73900
Al583      Al  0.70635476  0.34565683  0.78083443     1.90100
O584        O  0.74185944  0.35915699  0.72485092    -0.73000
O585        O  0.77333539  0.28916654  0.74822851    -0.72800
O586        O  0.78792158  0.34611764  0.75150448    -0.78500
O587        O  0.75853143  0.27805193  0.79323263    -0.76700
O588        O  0.73971101  0.32877803  0.77677123    -1.12800
O589        O  0.72475494  0.30483280  0.83023505    -0.72000
C590        C  0.69901379  0.30303898  0.82454602     0.98700
C591        C  0.73148022  0.38114380  0.73687682     0.95100
Al592      Al  0.75566042  0.32477811  0.74077844     1.55600
O593        O  0.71470011  0.36462409  0.81776779    -0.76700
C594        C  0.76890218  0.27086976  0.76825815     0.99200
C595        C  0.70012601  0.31135612  0.72589137     0.94100
O596        O  0.69127827  0.33010549  0.74423745    -0.82000
C597        C  0.78523528  0.55199190  0.53612075     0.80600
N598        N  0.79273808  0.53341887  0.01151717    -0.77700
C599        C  0.78378529  0.50585524  0.00930019     0.83000
N600        N  0.76596929  0.49775171  0.52978330    -0.77700
C601        C  0.76776979  0.50947894  0.55733808     0.83100
N602        N  0.77738605  0.53667591  0.56051550    -0.79400
C603        C  0.80192355  0.05208575  0.77729151     0.80600
N604        N  0.81273981  0.04109533  0.75144381    -0.77700
C605        C  0.82259710  0.01393153  0.75060593     0.83000
N606        N  0.82203376  0.99803568  0.77593268    -0.77700
C607        C  0.81121033  0.00901432  0.80172282     0.83100
N608        N  0.80085783  0.03582214  0.80214383    -0.79400
O609        O  0.86422847  0.87218995  0.55916438    -0.81400
C610        C  0.82577181  0.76724993  0.51612270     0.97900
O611        O  0.83651353  0.77685072  0.53969004    -0.70600
O612        O  0.86660146  0.81017978  0.57406099    -0.74100
Al613      Al  0.83142938  0.81449005  0.55446336     1.49000
C614        C  0.89175610  0.81333049  0.56545785     0.93200
O615        O  0.89539899  0.83731346  0.99121710    -0.80400
O616        O  0.83813135  0.85510289  0.97435889    -0.73900
Al617      Al  0.87515680  0.85338006  0.52230268     1.90100
O618        O  0.86548708  0.80475520  0.97496731    -0.73000
O619        O  0.79747499  0.83273639  0.00622414    -0.72800
O620        O  0.82231287  0.78041370  0.00102957    -0.78500
O621        O  0.79273873  0.81560173  0.54263697    -0.76700
O622        O  0.84525193  0.83012643  0.52122494    -1.12800
O623        O  0.82513802  0.85013200  0.57264365    -0.72000
C624        C  0.84237433  0.87043852  0.57554370     0.98700
C625        C  0.88935674  0.81650695  0.97409956     0.95100
Al626      Al  0.83233133  0.81903727  0.99217220     1.55600
O627        O  0.89760834  0.82675405  0.54201283    -0.76700
C628        C  0.78062908  0.82870153  0.52194077     0.99200
C629        C  0.84675113  0.87904232  0.98337853     0.94100
O630        O  0.85938397  0.88128415  0.00765718    -0.82000
C631        C  0.06264515  0.79402578  0.76026848     0.80600
N632        N  0.04255765  0.78978824  0.73951658    -0.77700
C633        C  0.01532792  0.78607753  0.74818252     0.83000
N634        N  0.00832400  0.78724036  0.77758624    -0.77700
C635        C  0.02826651  0.79173546  0.79843771     0.83100
N636        N  0.05539961  0.79523018  0.78969234    -0.79400
C637        C  0.26412429  0.09258994  0.73128650     0.80600
N638        N  0.26526153  0.10517279  0.70391319    -0.77700
C639        C  0.25343795  0.13130020  0.70004985     0.83000
N640        N  0.24105675  0.14480798  0.72367982    -0.77700
C641        C  0.24039950  0.13262737  0.75098272     0.83100
N642        N  0.25185997  0.10652472  0.75460211    -0.79400
O643        O  0.18519962  0.32342722  0.94504233    -0.81400
C644        C  0.30049899  0.30756854  0.47619789     0.97900
O645        O  0.29036966  0.31643134  0.95049901    -0.70600
O646        O  0.25448804  0.27966389  0.92861803    -0.74100
Al647      Al  0.25306578  0.31924187  0.93632791     1.49000
C648        C  0.23333104  0.26346954  0.92695265     0.93200
O649        O  0.21374698  0.26828324  0.49755580    -0.80400
O650        O  0.21953337  0.34904583  0.51632885    -0.73900
Al651      Al  0.20211197  0.29719934  0.47121837     1.90100
O652        O  0.23850644  0.29478546  0.52836083    -0.73000
O653        O  0.26657527  0.36165807  0.48801795    -0.72800
O654        O  0.28472297  0.30638425  0.49888449    -0.78500
O655        O  0.25336423  0.35912188  0.94085219    -0.76700
O656        O  0.23571795  0.31461073  0.47113146    -1.12800
O657        O  0.22041391  0.32368226  0.91305790    -0.72000
C658        C  0.19510730  0.32875612  0.91934827     0.98700
C659        C  0.22619863  0.27147842  0.52197792     0.95100
Al660      Al  0.25100611  0.32694232  0.50498130     1.55600
O661        O  0.21019298  0.27026559  0.93924059    -0.76700
C662        C  0.26380264  0.37333530  0.46278733     0.99200
C663        C  0.19474665  0.33995873  0.51908524     0.94100
O664        O  0.18634884  0.31879691  0.50388957    -0.82000
C665        C  0.01074663  0.37271768  0.72381941     0.80600
N666        N  0.02553200  0.36940455  0.69801177    -0.77700
C667        C  0.05357025  0.36479973  0.69828450     0.83000
N668        N  0.06695234  0.36312127  0.72487563    -0.77700
C669        C  0.05212432  0.36615048  0.75098039     0.83100
N670        N  0.02410565  0.37086786  0.75023417    -0.79400
C671        C  0.32392815  0.58900128  0.47890612     0.80600
N672        N  0.32237544  0.59870727  0.95129189    -0.77700
C673        C  0.33161983  0.62585323  0.94660321     0.83000
N674        N  0.34002397  0.64400062  0.47016123    -0.77700
C675        C  0.33600737  0.63432709  0.49826458     0.83100
N676        N  0.32793248  0.60676907  0.50264085    -0.79400
O677        O  0.35926510  0.76477408  0.71161036    -0.81400
C678        C  0.31666712  0.87732176  0.72444350     0.97900
O679        O  0.31111511  0.85952333  0.70401923    -0.70600
O680        O  0.35798319  0.84178914  0.67945957    -0.74100
Al681      Al  0.32597169  0.82253556  0.69463688     1.49000
C682        C  0.38250365  0.83200226  0.67845127     0.93200
O683        O  0.39238414  0.82657206  0.75456080    -0.80400
O684        O  0.32032204  0.79360804  0.77946637    -0.73900
Al685      Al  0.37340575  0.79732515  0.73247630     1.90100
O686        O  0.35739652  0.83810353  0.78438744    -0.73000
O687        O  0.28698893  0.82617121  0.74861819    -0.72800
O688        O  0.32682153  0.86911284  0.74876851    -0.78500
O689        O  0.29223309  0.80332683  0.70611656    -0.76700
O690        O  0.34150317  0.81686791  0.72990306    -1.12800
O691        O  0.33723794  0.78748590  0.67681844    -0.72000
C692        C  0.34762001  0.76484830  0.68665716     0.98700
C693        C  0.38324015  0.83785726  0.77842607     0.95100
Al694      Al  0.32440365  0.83061650  0.76256615     1.55600
O695        O  0.39013914  0.81295911  0.69652742    -0.76700
C696        C  0.27705632  0.81092162  0.72792714     0.99200
C697        C  0.33956861  0.77554609  0.78246415     0.94100
O698        O  0.36251757  0.77777967  0.76806788    -0.82000
C699        C  0.56828200  0.85374772  0.47449071     0.80600
N700        N  0.55339399  0.85078634  0.50036723    -0.77700
C701        C  0.52503578  0.84824851  0.50015110     0.83000
N702        N  0.51143788  0.84852815  0.47369322    -0.77700
C703        C  0.53119923  0.85111587  0.94855411     0.83100
N704        N  0.55961744  0.84951619  0.94946321    -0.79400
C705        C  0.47466057  0.85122850  0.88714276     0.19000
C706        C  0.44601046  0.85782393  0.88669218    -0.19000
C707        C  0.43061746  0.85466264  0.86055222    -0.11300
C708        C  0.44360237  0.84491445  0.83394558     0.21300
C709        C  0.47226369  0.83847518  0.83431834    -0.20700
C710        C  0.48767942  0.84161835  0.86048639    -0.11500
C711        C  0.42747261  0.83866677  0.80636218    -0.15700
C712        C  0.40216319  0.84981985  0.80109753    -0.29500
C713        C  0.48945775  0.85308157  0.91621559    -0.03800
C714        C  0.51742581  0.85090764  0.91920485    -0.40300
H715        H  0.43527846  0.86490480  0.90687767     0.12500
H716        H  0.40837995  0.85886733  0.86178870     0.12100
H717        H  0.48270364  0.83046875  0.81434828     0.11500
H718        H  0.50948242  0.83560538  0.85965732     0.11800
H719        H  0.43599476  0.82299779  0.79073857     0.14500
H720        H  0.39324252  0.86550847  0.81633181     0.13300
H721        H  0.47657744  0.85619978  0.93617914     0.11000
H722        H  0.53104478  0.84882793  0.89976524     0.13000
C723        C  0.43806596  0.83148810  0.61542654     0.19000
C724        C  0.46471770  0.81965414  0.61084923    -0.19000
C725        C  0.47911338  0.82319247  0.58369650    -0.11300
C726        C  0.46703813  0.83861247  0.56038239     0.21300
C727        C  0.44005597  0.84973152  0.56460169    -0.20700
C728        C  0.42570666  0.84632734  0.59181785    -0.11500
C729        C  0.48176308  0.84279813  0.53125417    -0.15700
C730        C  0.50987939  0.84416318  0.52877868    -0.29500
C731        C  0.42289176  0.82588554  0.64407059    -0.03800
C732        C  0.40128468  0.84173572  0.65409523    -0.40300
H733        H  0.47439682  0.80748265  0.62832711     0.12500
H734        H  0.49942294  0.81332399  0.58087654     0.12100
H735        H  0.43007577  0.86118975  0.54679358     0.11500
H736        H  0.40470133  0.85469795  0.59385180     0.11800
H737        H  0.46912784  0.84603603  0.51161643     0.14500
H738        H  0.52256285  0.84271903  0.54859702     0.13300
H739        H  0.42896333  0.80722105  0.65666146     0.11000
H740        H  0.39513506  0.86069673  0.64215401     0.13000
C741        C  0.35517535  0.71281803  0.83385754     0.19000
C742        C  0.37929136  0.70807741  0.85050714    -0.19000
C743        C  0.37829043  0.68989550  0.87499175    -0.11300
C744        C  0.35340111  0.67539277  0.88265809     0.21300
C745        C  0.32950276  0.67901410  0.86513378    -0.20700
C746        C  0.33033914  0.69775439  0.84094889    -0.11500
C747        C  0.35208645  0.65975177  0.91110952    -0.15700
C748        C  0.33534030  0.63699205  0.91614836    -0.29500
C749        C  0.35673077  0.73414098  0.80977418    -0.03800
C750        C  0.33558358  0.75190385  0.80370701    -0.40300
H751        H  0.39866324  0.71940521  0.84530077     0.12500
H752        H  0.39684695  0.68759308  0.88837617     0.12100
H753        H  0.30986616  0.66848558  0.87091844     0.11500
H754        H  0.31157609  0.70068064  0.82807597     0.11800
H755        H  0.36517807  0.66784961  0.92899418     0.14500
H756        H  0.32376597  0.62706962  0.89809180     0.13300
H757        H  0.37701493  0.73727822  0.79880614     0.11000
H758        H  0.31569459  0.75016651  0.81573505     0.13000
C759        C  0.33517608  0.71506427  0.61905120     0.19000
C760        C  0.32850761  0.72152383  0.58953452    -0.19000
C761        C  0.32744440  0.70019590  0.56781555    -0.11300
C762        C  0.33331815  0.67169216  0.57495389     0.21300
C763        C  0.33922137  0.66489577  0.60464916    -0.20700
C764        C  0.34032797  0.68642574  0.62658381    -0.11500
C765        C  0.33262802  0.64895592  0.55168409    -0.15700
C766        C  0.33930477  0.65472744  0.52309031    -0.29500
C767        C  0.33567882  0.73914672  0.64074996    -0.03800
C768        C  0.34667935  0.73852854  0.66821569    -0.40300
H769        H  0.32403057  0.74328602  0.58315751     0.12500
H770        H  0.32155739  0.70614325  0.54550578     0.12100
H771        H  0.34328771  0.64298824  0.61077701     0.11500
H772        H  0.34489526  0.68046837  0.64923460     0.11800
H773        H  0.32656535  0.62739464  0.55811092     0.14500
H774        H  0.34681402  0.67593248  0.51710199     0.13300
H775        H  0.32730061  0.75923303  0.63291863     0.11000
H776        H  0.35598557  0.71926530  0.67680283     0.13000
C777        C  0.29455095  0.51076005  0.96908591     0.19000
C778        C  0.27979225  0.49597403  0.94693014    -0.19000
C779        C  0.27204084  0.46737777  0.95084412    -0.11300
C780        C  0.28994088  0.45067230  0.47489140     0.21300
C781        C  0.28987483  0.46933840  0.49944486    -0.20700
C782        C  0.29689945  0.49818166  0.49595618    -0.11500
C783        C  0.28209648  0.42025071  0.47971202    -0.15700
C784        C  0.27148093  0.40354300  0.45811378    -0.29500
C785        C  0.30323805  0.54079034  0.96350002    -0.03800
C786        C  0.31578165  0.55900283  0.48454402    -0.40300
H787        H  0.27411068  0.50664241  0.92655215     0.12500
H788        H  0.26007974  0.45707048  0.93346855     0.12100
H789        H  0.28394822  0.46164765  0.52141711     0.11500
H790        H  0.29582137  0.51163120  0.51557811     0.11800
H791        H  0.28416066  0.41166214  0.50202758     0.14500
H792        H  0.26839301  0.41123181  0.93592958     0.13300
H793        H  0.30455531  0.54777804  0.94044680     0.11000
H794        H  0.31325419  0.55310493  0.50772131     0.13000
C795        C  0.11029669  0.35508770  0.63653827     0.19000
C796        C  0.13747290  0.36603035  0.63176671    -0.19000
C797        C  0.15136315  0.36208306  0.60429816    -0.11300
C798        C  0.13835438  0.34680041  0.58100852     0.21300
C799        C  0.11124959  0.33569771  0.58592240    -0.20700
C800        C  0.09732908  0.33978776  0.61328443    -0.11500
C801        C  0.15334518  0.33923281  0.55268457    -0.15700
C802        C  0.17654152  0.35281066  0.54243951    -0.29500
C803        C  0.09634555  0.35910467  0.66620406    -0.03800
C804        C  0.06832562  0.36068454  0.66937068    -0.40300
H805        H  0.14805784  0.37755693  0.64942850     0.12500
H806        H  0.17259161  0.37014754  0.60192924     0.12100
H807        H  0.10097010  0.32332200  0.56866630     0.11500
H808        H  0.07677112  0.33018596  0.61639186     0.11800
H809        H  0.14582481  0.32045951  0.54070129     0.14500
H810        H  0.18424681  0.37189991  0.55359976     0.13300
H811        H  0.10944777  0.36202732  0.68562593     0.11000
H812        H  0.05530526  0.35975259  0.64973270     0.13000
C813        C  0.10617303  0.35871740  0.81377440     0.19000
C814        C  0.13253698  0.37110784  0.81882533    -0.19000
C815        C  0.14620856  0.36687860  0.84575868    -0.11300
C816        C  0.13419755  0.34927061  0.86803451     0.21300
C817        C  0.10730558  0.33773130  0.86343406    -0.20700
C818        C  0.09341759  0.34232144  0.83656714    -0.11500
C819        C  0.14986268  0.34131236  0.89530640    -0.15700
C820        C  0.17804744  0.34044582  0.89522092    -0.29500
C821        C  0.09322106  0.36222468  0.78406590    -0.03800
C822        C  0.06534474  0.36302467  0.78038834    -0.40300
H823        H  0.14264736  0.38409474  0.80179479     0.12500
H824        H  0.16631803  0.37727413  0.84881822     0.12100
H825        H  0.09747088  0.32423289  0.88019549     0.11500
H826        H  0.07323843  0.33209637  0.83327562     0.11800
H827        H  0.13817390  0.33339188  0.91459539     0.14500
H828        H  0.18971367  0.34619398  0.87514543     0.13300
H829        H  0.10708823  0.36530688  0.76485619     0.11000
H830        H  0.05144415  0.36196062  0.79978561     0.13000
C831        C  0.24080626  0.22405057  0.58998819     0.19000
C832        C  0.26526935  0.21644810  0.60493555    -0.19000
C833        C  0.26424783  0.19621548  0.62781186    -0.11300
C834        C  0.23853745  0.18377957  0.63665748     0.21300
C835        C  0.21406494  0.19139370  0.62178537    -0.20700
C836        C  0.21518251  0.21105765  0.59841066    -0.11500
C837        C  0.23620936  0.16575426  0.66362977    -0.15700
C838        C  0.25512226  0.14585255  0.67086847    -0.29500
C839        C  0.24226468  0.24706425  0.56733151    -0.03800
C840        C  0.22539534  0.24775581  0.54357694    -0.40300
H841        H  0.28517234  0.22645636  0.59911031     0.12500
H842        H  0.28330156  0.19130434  0.63948078     0.12100
H843        H  0.19395435  0.18245394  0.62864541     0.11500
H844        H  0.19582611  0.21697577  0.58788482     0.11800
H845        H  0.21804675  0.16911380  0.67816480     0.14500
H846        H  0.27212463  0.14054953  0.65544972     0.13300
H847        H  0.25822007  0.26360023  0.56994671     0.11000
H848        H  0.21076771  0.23026793  0.53956190     0.13000
C849        C  0.22596725  0.15942930  0.83064755     0.19000
C850        C  0.24391495  0.16037856  0.85511043    -0.19000
C851        C  0.23947664  0.18012082  0.87815979    -0.11300
C852        C  0.21672950  0.19898603  0.87724744     0.21300
C853        C  0.19757024  0.19652496  0.85395075    -0.20700
C854        C  0.20222447  0.17703202  0.83067312    -0.11500
C855        C  0.21351497  0.22251157  0.89921418    -0.15700
C856        C  0.23590327  0.23701523  0.90932593    -0.29500
C857        C  0.23334112  0.14084489  0.80493516    -0.03800
C858        C  0.22869216  0.14862522  0.77663288    -0.40300
H859        H  0.26208679  0.14667341  0.85575486     0.12500
H860        H  0.25412311  0.18099080  0.89636272     0.12100
H861        H  0.17968553  0.21059188  0.85307541     0.11500
H862        H  0.18752640  0.17608818  0.81252816     0.11800
H863        H  0.19252993  0.23022316  0.90430797     0.14500
H864        H  0.25688264  0.23088096  0.90214419     0.13300
H865        H  0.24575537  0.12198652  0.80921927     0.11000
H866        H  0.21819725  0.16859312  0.77208891     0.13000
C867        C  0.29703984  0.01761964  0.72192104     0.19000
C868        C  0.29988033  0.99848206  0.69787932    -0.19000
C869        C  0.30661340  0.96985489  0.70265302    -0.11300
C870        C  0.31060492  0.95959926  0.73177092     0.21300
C871        C  0.30909860  0.97906032  0.75568306    -0.20700
C872        C  0.30248348  0.00773084  0.75089047    -0.11500
C873        C  0.31678224  0.92902597  0.73800015    -0.15700
C874        C  0.31062058  0.90767884  0.71887141    -0.29500
C875        C  0.28806611  0.04747239  0.71592741    -0.03800
C876        C  0.27535164  0.06381632  0.73678207    -0.40300
H877        H  0.29642175  0.00559311  0.67530111     0.12500
H878        H  0.30883477  0.95604721  0.68334774     0.12100
H879        H  0.31272937  0.97198574  0.77824137     0.11500
H880        H  0.30181583  0.02196347  0.76998878     0.11800
H881        H  0.32587257  0.92384603  0.75935379     0.14500
H882        H  0.30042440  0.91224782  0.69802446     0.13300
H883        H  0.29034477  0.05550811  0.69332811     0.11000
H884        H  0.27172431  0.05550511  0.75903698     0.13000
C885        C  0.14259948  0.79742956  0.76000539     0.19000
C886        C  0.16319452  0.77683220  0.76473649    -0.19000
C887        C  0.19136902  0.78307786  0.75840758    -0.11300
C888        C  0.19922544  0.81034779  0.74824593     0.21300
C889        C  0.17869434  0.83103785  0.74391954    -0.20700
C890        C  0.15048191  0.82450658  0.74929496    -0.11500
C891        C  0.22890282  0.81845662  0.74470572    -0.15700
C892        C  0.24738086  0.80237120  0.72943246    -0.29500
C893        C  0.11318993  0.79115056  0.76823783    -0.03800
C894        C  0.09193167  0.79860403  0.75077586    -0.40300
H895        H  0.15744617  0.75598469  0.77337312     0.12500
H896        H  0.20709250  0.76707293  0.76250247     0.12100
H897        H  0.18455506  0.85229905  0.73653424     0.11500
H898        H  0.13493874  0.84090013  0.74613795     0.11800
H899        H  0.23550492  0.83887187  0.75413082     0.14500
H900        H  0.24052841  0.78320693  0.71769430     0.13300
H901        H  0.10897887  0.77957367  0.78878880     0.11000
H902        H  0.09615127  0.80778330  0.72894358     0.13000
C903        C  0.64508636  0.85142533  0.49991061     0.19000
C904        C  0.65772510  0.83805833  0.52405318    -0.19000
C905        C  0.68682808  0.83552939  0.52521052    -0.11300
C906        C  0.70789908  0.84003428  0.00854686     0.21300
C907        C  0.69577731  0.85039507  0.98247921    -0.20700
C908        C  0.66672837  0.85237958  0.98008703    -0.11500
C909        C  0.73898080  0.83800521  0.00916187    -0.15700
C910        C  0.75010992  0.83302268  0.52429638    -0.29500
C911        C  0.61400318  0.85258074  0.49944988    -0.03800
C912        C  0.59919168  0.85548831  0.47438548    -0.40300
H913        H  0.64496508  0.82898028  0.54188269     0.12500
H914        H  0.69526541  0.82432242  0.54395072     0.12100
H915        H  0.70887023  0.85702433  0.96375594     0.11500
H916        H  0.65846149  0.86107043  0.95979532     0.11800
H917        H  0.75039409  0.84592842  0.98967983     0.14500
H918        H  0.74003683  0.82641752  0.54494196     0.13300
H919        H  0.60285015  0.84900601  0.52044548     0.11000
H920        H  0.61475967  0.84605170  0.95521901     0.13000
C921        C  0.97555209  0.77709995  0.67429051     0.19000
C922        C  0.98306541  0.78193545  0.64436507    -0.19000
C923        C  0.96251066  0.78467048  0.62270308    -0.11300
C924        C  0.93382405  0.78273822  0.63060634     0.21300
C925        C  0.92645210  0.77576395  0.66011193    -0.20700
C926        C  0.94701153  0.77283942  0.68171836    -0.11500
C927        C  0.91092299  0.78918709  0.60951801    -0.15700
C928        C  0.91505563  0.80267405  0.58338534    -0.29500
C929        C  0.99796553  0.77777603  0.69701277    -0.03800
C930        C  0.99285939  0.78234902  0.72625329    -0.40300
H931        H  0.00491150  0.78456434  0.63785385     0.12500
H932        H  0.96941164  0.78874498  0.60006186     0.12100
H933        H  0.90460342  0.77343721  0.66673651     0.11500
H934        H  0.94025288  0.76763601  0.70416278     0.11800
H935        H  0.88950981  0.78479558  0.61695695     0.14500
H936        H  0.93600486  0.80814138  0.57554034     0.13300
H937        H  0.01959000  0.77643397  0.68911530     0.11000
H938        H  0.97156641  0.78448720  0.73471463     0.13000
C939        C  0.98442544  0.79107549  0.87086042     0.19000
C940        C  0.96518513  0.77175564  0.88355289    -0.19000
C941        C  0.95065520  0.77872195  0.90978964    -0.11300
C942        C  0.95441677  0.80569567  0.92338808     0.21300
C943        C  0.97502001  0.82430612  0.91174857    -0.20700
C944        C  0.98991792  0.81712001  0.88563475    -0.11500
C945        C  0.93595689  0.81559761  0.94835983    -0.15700
C946        C  0.90956386  0.80566044  0.95175414    -0.29500
C947        C  0.99557453  0.78494245  0.84055740    -0.03800
C948        C  0.02029520  0.79490748  0.83015959    -0.40300
H949        H  0.96084004  0.75146156  0.87268133     0.12500
H950        H  0.93602761  0.76313795  0.91885617     0.12100
H951        H  0.97854301  0.84505733  0.92197330     0.11500
H952        H  0.00439756  0.83265403  0.87615923     0.11800
H953        H  0.94329986  0.83290465  0.96262159     0.14500
H954        H  0.90151901  0.78951278  0.93657491     0.13300
H955        H  0.98248157  0.77201530  0.82597690     0.11000
H956        H  0.03466803  0.80598593  0.84493029     0.13000
C957        C  0.84239936  0.95854752  0.68994945     0.19000
C958        C  0.83669829  0.92915044  0.68828912    -0.19000
C959        C  0.84062479  0.91415486  0.66162927    -0.11300
C960        C  0.85051193  0.92821879  0.63587412     0.21300
C961        C  0.85722854  0.95742866  0.63762712    -0.20700
C962        C  0.85301112  0.97260992  0.66440094    -0.11500
C963        C  0.85468796  0.91213812  0.60754611    -0.15700
C964        C  0.83697780  0.89093254  0.59992270    -0.29500
C965        C  0.83703318  0.97326483  0.71889384    -0.03800
C966        C  0.83200933  0.00139373  0.72181924    -0.40300
H967        H  0.82888182  0.91771641  0.70769472     0.12500
H968        H  0.83624918  0.89140897  0.66133557     0.12100
H969        H  0.86538842  0.96854627  0.61818537     0.11500
H970        H  0.85839727  0.99510274  0.66505309     0.11800
H971        H  0.87268465  0.91729054  0.59334828     0.14500
H972        H  0.81824579  0.88710209  0.61349849     0.13300
H973        H  0.83487290  0.95977220  0.73845276     0.11000
H974        H  0.83254679  0.01516360  0.70244898     0.13000
C975        C  0.82786674  0.95661312  0.86398922     0.19000
C976        C  0.85272292  0.95091073  0.87903493    -0.19000
C977        C  0.85203220  0.93497676  0.90529993    -0.11300
C978        C  0.82645601  0.92395354  0.91649462     0.21300
C979        C  0.80163326  0.92959002  0.90135715    -0.20700
C980        C  0.80224479  0.94606401  0.87550869    -0.11500
C981        C  0.82566847  0.90327515  0.94123221    -0.15700
C982        C  0.84359406  0.90410152  0.96407741    -0.29500
C983        C  0.82912529  0.97267785  0.83572986    -0.03800
C984        C  0.80970474  0.99207402  0.82915344    -0.40300
H985        H  0.87269008  0.95866406  0.87034056     0.12500
H986        H  0.87161495  0.93017945  0.91600234     0.12100
H987        H  0.78180655  0.92077015  0.90926905     0.11500
H988        H  0.78283430  0.94967666  0.86395914     0.11800
H989        H  0.81057776  0.88577610  0.93967158     0.14500
H990        H  0.85751135  0.92234832  0.96720194     0.13300
H991        H  0.84718859  0.96979675  0.82094341     0.11000
H992        H  0.79321395  0.99708678  0.84531548     0.13000
C993        C  0.82791833  0.68592338  0.52564054     0.19000
C994        C  0.82929550  0.66824005  0.55064595    -0.19000
C995        C  0.82274986  0.63918477  0.54831129    -0.11300
C996        C  0.82049921  0.62269973  0.02225017     0.21300
C997        C  0.81862852  0.64073539  0.99757192    -0.20700
C998        C  0.82477003  0.66986534  0.00030878    -0.11500
C999        C  0.81225894  0.59224524  0.01886571    -0.15700
C1000       C  0.79566265  0.58139355  0.54024091    -0.29500
C1001       C  0.83292385  0.71697270  0.52957254    -0.03800
C1002       C  0.82218720  0.73643561  0.51124496    -0.40300
H1003       H  0.83484347  0.67705554  0.57219900     0.12500
H1004       H  0.82409794  0.62625810  0.56811514     0.12100
H1005       H  0.81190307  0.63235436  0.97622683     0.11500
H1006       H  0.82319439  0.68292906  0.98063985     0.11800
H1007       H  0.81243545  0.58304493  0.99652785     0.14500
H1008       H  0.79421095  0.59033895  0.56259036     0.13300
H1009       H  0.84434869  0.72410751  0.54910175     0.11000
H1010       H  0.81509898  0.72663169  0.99554279     0.13000
C1011       C  0.93322131  0.38158597  0.74794738     0.19000
C1012       C  0.91943395  0.37945599  0.77573300    -0.19000
C1013       C  0.89034654  0.37616828  0.77753196    -0.11300
C1014       C  0.87438397  0.37474902  0.75144551     0.21300
C1015       C  0.88782501  0.37913166  0.72379533    -0.20700
C1016       C  0.91697731  0.38249669  0.72196923    -0.11500
C1017       C  0.84406503  0.36735501  0.75224013    -0.15700
C1018       C  0.83272348  0.35061267  0.77359247    -0.29500
C1019       C  0.96441336  0.38150751  0.74736212    -0.03800
C1020       C  0.98011788  0.37657803  0.72269153    -0.40300
H1021       H  0.93129133  0.37939265  0.79614853     0.12500
H1022       H  0.88054872  0.37426111  0.79936741     0.12100
H1023       H  0.87587357  0.37881111  0.70343940     0.11500
H1024       H  0.92647094  0.38529719  0.70014198     0.11800
H1025       H  0.83136714  0.37366277  0.73350888     0.14500
H1026       H  0.84551307  0.34290361  0.79159179     0.13300
H1027       H  0.97485221  0.38359598  0.76865782     0.11000
H1028       H  0.97053053  0.37394809  0.70109820     0.13000
C1029       C  0.78772883  0.13119308  0.76217377     0.19000
C1030       C  0.80414952  0.15266994  0.74879261    -0.19000
C1031       C  0.79820944  0.18143922  0.75413788    -0.11300
C1032       C  0.77532267  0.18922910  0.77262480     0.21300
C1033       C  0.75851690  0.16771241  0.78540792    -0.20700
C1034       C  0.76446867  0.13896747  0.78007133    -0.11500
C1035       C  0.76880539  0.21944940  0.77970659    -0.15700
C1036       C  0.77623277  0.24105359  0.76165786    -0.29500
C1037       C  0.79594908  0.10097238  0.75794615    -0.03800
C1038       C  0.79137231  0.08144490  0.77928762    -0.40300
H1039       H  0.82217661  0.14717451  0.73496620     0.12500
H1040       H  0.81211319  0.19736169  0.74445963     0.12100
H1041       H  0.74068821  0.17317032  0.79954649     0.11500
H1042       H  0.75081392  0.12293636  0.78998817     0.11800
H1043       H  0.75646853  0.22392631  0.79977986     0.14500
H1044       H  0.78688460  0.23685633  0.74053415     0.13300
H1045       H  0.80812645  0.09527007  0.73811857     0.11000
H1046       H  0.78111607  0.08757049  0.80012977     0.13000
C1047       C  0.75603526  0.43655346  0.67897393     0.19000
C1048       C  0.77604333  0.43460113  0.65580432    -0.19000
C1049       C  0.77847433  0.45594986  0.63455787    -0.11300
C1050       C  0.76095815  0.47983795  0.63600082     0.21300
C1051       C  0.74213992  0.48294642  0.66010476    -0.20700
C1052       C  0.73946484  0.46129175  0.68142825    -0.11500
C1053       C  0.76176169  0.50066247  0.61148401    -0.15700
C1054       C  0.76220174  0.49118283  0.58316948    -0.29500
C1055       C  0.75254204  0.41131237  0.69843513    -0.07800
C1056       C  0.73405443  0.40864952  0.72124948    -0.40300
H1057       H  0.78933450  0.41602376  0.65354482     0.12500
H1058       H  0.79370519  0.45351193  0.61654058     0.12100
H1059       H  0.72870577  0.50145513  0.66167535     0.11500
H1060       H  0.72396789  0.46378619  0.69907095     0.11800
H1061       H  0.76224758  0.52339018  0.61659599     0.14500
H1062       H  0.75970409  0.46842268  0.57870830     0.13300
H1063       H  0.76575485  0.39314007  0.69287919     0.11000
H1064       H  0.72102750  0.42625661  0.72864809     0.13000
C1065       C  0.76471838  0.45203411  0.94742280     0.19000
C1066       C  0.74037462  0.43602215  0.94162723    -0.19000
C1067       C  0.73873967  0.41874488  0.91618219    -0.11300
C1068       C  0.76166747  0.41689186  0.89615325     0.21300
C1069       C  0.78606364  0.43283373  0.90197665    -0.20700
C1070       C  0.78755188  0.45046602  0.92725349    -0.11500
C1071       C  0.76138517  0.39692722  0.87033541    -0.15700
C1072       C  0.73778659  0.39002428  0.85584564    -0.29500
C1073       C  0.76636188  0.46810179  0.97591960    -0.03800
C1074       C  0.78239450  0.49158730  0.97990127    -0.40300
H1075       H  0.72268620  0.43656958  0.95709774     0.12500
H1076       H  0.71993023  0.40606583  0.91288486     0.12100
H1077       H  0.80411853  0.43139029  0.88707908     0.11500
H1078       H  0.80691158  0.46192278  0.93151267     0.11800
H1079       H  0.78121805  0.38778102  0.86298127     0.14500
H1080       H  0.71819199  0.40043449  0.86176097     0.13300
H1081       H  0.75317951  0.46054117  0.99429570     0.11000
H1082       H  0.79403146  0.50089490  0.96130521     0.13000
C1083       C  0.61109770  0.29425677  0.61534605     0.19000
C1084       C  0.63986775  0.28836656  0.61618713    -0.19000
C1085       C  0.65505052  0.29321204  0.64220704    -0.11300
C1086       C  0.64170666  0.30416527  0.66806812     0.21300
C1087       C  0.61301943  0.31027259  0.66716673    -0.20700
C1088       C  0.59782266  0.30537663  0.64118521    -0.11500
C1089       C  0.65749437  0.31182059  0.69535235    -0.15700
C1090       C  0.68200904  0.29982070  0.70227081    -0.29500
C1091       C  0.59606066  0.29004216  0.58676632    -0.03800
C1092       C  0.56802164  0.28725077  0.58525536    -0.40300
H1093       H  0.65072947  0.28028175  0.59650451     0.12500
H1094       H  0.67736388  0.28926913  0.64154273     0.12100
H1095       H  0.60238568  0.31927250  0.68655232     0.11500
H1096       H  0.57595531  0.31124944  0.64131892     0.11800
H1097       H  0.64905657  0.32861472  0.70967622     0.14500
H1098       H  0.69033596  0.28245859  0.68872143     0.13300
H1099       H  0.60857053  0.28891589  0.56631859     0.11000
H1100       H  0.55529934  0.28688908  0.60551308     0.13000
C1101       C  0.63870679  0.29156613  0.88074459     0.19000
C1102       C  0.60934491  0.29327613  0.88167150    -0.19000
C1103       C  0.59442939  0.29028566  0.90868204    -0.11300
C1104       C  0.60868233  0.28567709  0.93553828     0.21300
C1105       C  0.63803850  0.28400828  0.93453544    -0.20700
C1106       C  0.65289679  0.28691468  0.90758963    -0.11500
C1107       C  0.59417216  0.28435813  0.96524514    -0.15700
C1108       C  0.56642464  0.27986327  0.96905933    -0.29500
C1109       C  0.65413866  0.29784305  0.85232653    -0.03800
C1110       C  0.68063132  0.28933917  0.84707395    -0.40300
H1111       H  0.59793124  0.29748189  0.86148749     0.12500
H1112       H  0.57191361  0.29261605  0.90837155     0.12100
H1113       H  0.64963535  0.28097400  0.95484493     0.11500
H1114       H  0.67555196  0.28668685  0.90824687     0.11800
H1115       H  0.60700138  0.28734917  0.98486781     0.14500
H1116       H  0.55323573  0.27589992  0.94997480     0.13300
H1117       H  0.64419974  0.31177629  0.83641337     0.11000
H1118       H  0.69067443  0.27518814  0.86262652     0.13000
C1119       C  0.43174752  0.27706917  0.00440665     0.19000
C1120       C  0.41817599  0.27483019  0.97692086    -0.19000
C1121       C  0.38918564  0.27820530  0.97513529    -0.11300
C1122       C  0.37316962  0.28682871  0.50511548     0.21300
C1123       C  0.38659205  0.29138677  0.53238565    -0.20700
C1124       C  0.41565179  0.28834666  0.53452038    -0.11500
C1125       C  0.34260912  0.29233167  0.50324925    -0.15700
C1126       C  0.33024696  0.29958517  0.47766215    -0.29500
C1127       C  0.46295141  0.27528131  0.00440122    -0.03800
C1128       C  0.47865783  0.27945185  0.53414221    -0.40300
H1129       H  0.43012002  0.27085273  0.95657449     0.12500
H1130       H  0.37969243  0.27606923  0.95348478     0.12100
H1131       H  0.37467006  0.29822577  0.55189287     0.11500
H1132       H  0.42518260  0.29327153  0.55566449     0.11800
H1133       H  0.33031019  0.29236518  0.52387516     0.14500
H1134       H  0.34198158  0.30287587  0.95467293     0.13300
H1135       H  0.47334671  0.27084231  0.98313684     0.11000
H1136       H  0.46893459  0.27950431  0.55614959     0.13000
loop_ 
_geom_bond_atom_site_label_1 
_geom_bond_atom_site_label_2 
_geom_bond_distance 
_geom_bond_site_symmetry_2 
_ccdc_geom_bond_type 
C1            N6   1.355       .  A
C1          N570   1.359       .  A
C1          C560   1.477       .  S
N2            C3   1.356       .  A
N2          C569   1.357       .  A
C3            N4   1.362       .  A
C3          C540   1.477       .  S
N4          C573   1.363       .  A
C5            N6   1.357       .  A
C5          N572   1.363       .  A
C5          C524   1.479       .  S
O7           C22   1.263       .  A
O7          Al15   1.912       .  S
C8          C450   1.475       .  S
C8           O18   1.259       .  A
C8            O9   1.260       .  A
O9          Al11   1.916       .  S
O10          C12   1.262       .  A
O10         Al11   1.891       .  S
Al11         O19   1.896       .  S
Al11         O21   1.898       .  S
Al11         O20   1.781       .  S
C12         C504   1.469       .  S
C12          O25   1.264       .  A
O13          C23   1.257       .  A
O13         Al15   1.899       .  S
O14          C27   1.258       .  A
O14         Al24   1.888       .  S
Al15         O28   1.936       .  S
Al15         O25   1.915       .  S
Al15         O20   1.794       .  S
O16          C23   1.259       .  A
O16         Al24   1.886       .  S
O17          C26   1.258       .  A
O17         Al24   1.900       .  S
O18         Al24   1.899       .  S
O19          C26   1.262       .  A
O20         Al24   1.782       .  S
O21          C22   1.258       .  A
C22         C542   1.473       .  S
C23         C488   1.470       .  S
C26         C468   1.463       .  S
C27         C522   1.478       .  S
C27          O28   1.267       .  A
C29          N34   1.356       .  A
C29         N598   1.362       .  A
C29         C432   1.470       .  S
N30          C31   1.356       .  A
N30         C597   1.362       .  A
C31         N600   1.355       .  A
C31         C506   1.473       .  S
N32          C33   1.354       .  A
N32         C599   1.357       .  A
C33          N34   1.355       .  A
C33         C486   1.466       .  S
C35          N36   1.360       .  A
C35          N40   1.353       .  A
C35         C470   1.464       .  S
N36          C37   1.358       .  A
C37          N38   1.360       .  A
C37         C398   1.476       .  S
N38          C39   1.356       .  A
C39          N40   1.350       .  A
C39         C416   1.464   1_545  S
O41          C56   1.268       .  A
O41         Al49   1.930       .  S
C42         C434   1.469       .  S
C42          O43   1.260       .  A
C42         O620   1.258       .  A
O43         Al45   1.900       .  S
O44          C46   1.259       .  A
O44         Al45   1.906       .  S
Al45         O53   1.929       .  S
Al45         O55   1.874       .  S
Al45         O54   1.787       .  S
C46         C360   1.472       .  S
C46          O59   1.254       .  A
O47          C57   1.268       .  A
O47        Al617   1.931       .  S
O48          C61   1.258       .  A
O48         Al58   1.892       .  S
Al49         O59   1.884       .  S
Al49        O615   1.934   1_554  S
Al49        O630   1.900       .  S
Al49         O54   1.792       .  S
O50          C57   1.258       .  A
O50         Al58   1.874       .  S
O51         C628   1.261       .  A
O51         Al58   1.888       .  S
O52         C610   1.259       .  A
O52         Al58   1.909       .  S
O53          C60   1.264       .  A
O54        Al626   1.782   1_554  S
O55          C56   1.258       .  A
C56         C396   1.469       .  S
C57         C378   1.467       .  S
Al58        O622   1.783       .  S
C60         C342   1.474       .  S
C60         O619   1.261       .  A
C61         C414   1.468       .  S
C61          O62   1.256       .  A
O62        Al617   1.895       .  S
C63          N64   1.357       .  A
C63          N68   1.358       .  A
C63         C326   1.470       .  S
N64          C65   1.359       .  A
C65          N66   1.355       .  A
C65         C362   1.470   1_455  S
N66          C67   1.357       .  A
C67          N68   1.353       .  A
C67         C380   1.468       .  S
C69          N70   1.364       .  A
C69          N74   1.358       .  A
C69         C308   1.477       .  S
N70          C71   1.361       .  A
C71          N72   1.358       .  A
C71         C270   1.480       .  S
N72          C73   1.353       .  A
C73          N74   1.357       .  A
C73         C290   1.473       .  S
O75          C90   1.265       .  A
O75        Al651   1.921       .  S
C76         C558   1.472       .  S
C76          O86   1.255       .  A
C76         O645   1.256       .  A
O77         C644   1.257       .  A
O77         Al79   1.907       .  S
O78          C80   1.258       .  A
O78         Al79   1.885       .  S
Al79         O87   1.878       .  S
Al79         O89   1.905       .  S
Al79        O656   1.780       .  S
C80         C288   1.467       .  S
C80          O93   1.266       .  A
O81          C91   1.260   1_556  A
O81         Al83   1.892       .  S
O82          C95   1.255       .  A
O82         Al92   1.884       .  S
Al83         O96   1.922   1_556  S
Al83        O643   1.920       .  S
Al83        O661   1.932       .  S
Al83         O88   1.793       .  S
O84          C91   1.266       .  A
O84         Al92   1.922       .  S
O85          C94   1.269       .  A
O85         Al92   1.934   1_556  S
O86         Al92   1.895   1_556  S
O87         C662   1.258       .  A
O88         Al92   1.784   1_556  S
O88        Al647   1.783       .  S
O89          C90   1.260       .  A
C90         C252   1.477       .  S
C91         C272   1.475       .  S
O93        Al651   1.928       .  S
C94         C216   1.471       .  S
C94         O655   1.258       .  A
C95         C234   1.475       .  S
C95          O96   1.263       .  A
C97          N98   1.355       .  A
C97         N102   1.359       .  A
C97         C452   1.479   1_455  S
N98          C99   1.357       .  A
C99         N100   1.363       .  A
C99         C236   1.478       .  S
N100        C101   1.364       .  A
C101        N102   1.359       .  A
C101        C254   1.481       .  S
C103        N108   1.358   1_556  A
C103        N672   1.363       .  A
C103        C218   1.473       .  S
N104        C105   1.359       .  A
N104        C671   1.364       .  A
C105        N674   1.355       .  A
C105        C180   1.475       .  S
N106        C107   1.352       .  A
N106        C673   1.355       .  A
C107        N108   1.357   1_556  A
C107        C198   1.467   1_556  S
O109        C124   1.256       .  A
O109       Al117   1.896       .  S
C110        C306   1.472       .  S
C110        O120   1.262       .  A
C110        O111   1.261       .  A
O111       Al113   1.916       .  S
O112        C114   1.258       .  A
O112       Al113   1.882       .  S
Al113       O121   1.897       .  S
Al113       O123   1.896       .  S
Al113       O122   1.783       .  S
C114        C164   1.473       .  S
C114        O127   1.269       .  A
O115        C125   1.260       .  A
O115       Al117   1.902       .  S
O116        C129   1.262       .  A
O116       Al126   1.897       .  S
Al117       O130   1.919       .  S
Al117       O127   1.933       .  S
Al117       O122   1.788       .  S
O118        C125   1.256       .  A
O118       Al126   1.889       .  S
O119        C128   1.262       .  A
O119       Al126   1.903       .  S
O120       Al126   1.901       .  S
O121        C128   1.258       .  A
O122       Al126   1.780       .  S
O123        C124   1.259       .  A
C124        C200   1.473       .  S
C125        C144   1.465       .  S
C128        C324   1.470       .  S
C129        C182   1.476       .  S
C129        O130   1.266       .  A
C131        N132   1.356   1_556  A
C131        N704   1.357       .  A
C131        C344   1.476       .  S
N132        C133   1.355       .  A
C133        N134   1.361   1_554  A
C133        C162   1.474       .  S
N134        C703   1.362       .  A
C135        N136   1.357       .  A
C135        N702   1.362       .  A
C135        C146   1.473       .  S
N136        C699   1.355       .  A
C137        C145   1.483       .  S
C137        C138   1.400       .  A
C137        C142   1.407       .  A
C138        C139   1.397       .  A
C138        H147   1.084       .  S
C139        C140   1.411       .  A
C139        H148   1.080       .  S
C140        C143   1.487       .  S
C140        C141   1.402       .  A
C141        C142   1.397       .  A
C141        H149   1.084       .  S
C142        H150   1.082       .  S
C143        H151   1.088       .  S
C143        C144   1.342       .  D
C144        H152   1.083       .  S
C145        H153   1.087       .  S
C145        C146   1.343       .  D
C146        H154   1.086       .  S
C155        C163   1.486       .  S
C155        C156   1.401       .  A
C155        C160   1.410       .  A
C156        C157   1.396       .  A
C156        H165   1.084       .  S
C157        C158   1.408       .  A
C157        H166   1.081       .  S
C158        C161   1.486       .  S
C158        C159   1.402       .  A
C159        C160   1.399       .  A
C159        H167   1.084       .  S
C160        H168   1.081       .  S
C161        H169   1.087       .  S
C161        C162   1.344       .  D
C162        H170   1.085       .  S
C163        H171   1.087       .  S
C163        C164   1.343       .  D
C164        H172   1.085       .  S
C173        C181   1.481       .  S
C173        C174   1.402       .  A
C173        C178   1.407       .  A
C174        C175   1.396       .  A
C174        H183   1.084       .  S
C175        C176   1.401       .  A
C175        H184   1.083       .  S
C176        C179   1.477       .  S
C176        C177   1.406       .  A
C177        C178   1.400       .  A
C177        H185   1.083       .  S
C178        H186   1.082       .  S
C179        H187   1.087       .  S
C179        C180   1.345       .  D
C180        H188   1.086       .  S
C181        H189   1.087       .  S
C181        C182   1.345       .  D
C182        H190   1.086       .  S
C191        C199   1.480       .  S
C191        C192   1.401       .  A
C191        C196   1.409       .  A
C192        C193   1.390       .  A
C192        H201   1.084       .  S
C193        C194   1.405       .  A
C193        H202   1.083       .  S
C194        C197   1.479       .  S
C194        C195   1.402       .  A
C195        C196   1.401       .  A
C195        H203   1.083       .  S
C196        H204   1.080       .  S
C197        H205   1.086       .  S
C197        C198   1.342       .  D
C198        H206   1.087       .  S
C199        H207   1.087       .  S
C199        C200   1.345       .  D
C200        H208   1.084       .  S
C209        C217   1.491       .  S
C209        C210   1.404       .  A
C209        C782   1.411       .  A
C210        C211   1.398       .  A
C210        H219   1.083       .  S
C211        C780   1.408       .  A
C211        H220   1.082       .  S
C212        C215   1.486       .  S
C212        C213   1.402       .  A
C212        C779   1.409       .  A
C213        C214   1.397       .  A
C213        H221   1.083   1_556  S
C214        C777   1.408       .  A
C214        H222   1.081   1_556  S
C215        H223   1.087   1_556  S
C215        C216   1.343       .  D
C216        H792   1.084       .  S
C217        H225   1.087       .  S
C217        C786   1.346       .  D
C218        H226   1.085   1_556  S
C218        C785   1.343       .  D
H224        C784   1.085       .  S
C227        C235   1.490       .  S
C227        C228   1.403       .  A
C227        C232   1.410       .  A
C228        C229   1.400       .  A
C228        H237   1.083       .  S
C229        C230   1.409       .  A
C229        H238   1.082       .  S
C230        C233   1.487       .  S
C230        C231   1.401       .  A
C231        C232   1.398       .  A
C231        H239   1.083       .  S
C232        H240   1.081       .  S
C233        H241   1.087       .  S
C233        C234   1.344       .  D
C234        H242   1.086       .  S
C235        H243   1.087       .  S
C235        C236   1.345       .  D
C236        H244   1.085       .  S
C245        C253   1.490       .  S
C245        C246   1.402       .  A
C245        C250   1.409       .  A
C246        C247   1.399       .  A
C246        H255   1.084       .  S
C247        C248   1.411       .  A
C247        H256   1.081       .  S
C248        C251   1.496       .  S
C248        C249   1.405       .  A
C249        C250   1.402       .  A
C249        H257   1.083       .  S
C250        H258   1.082       .  S
C251        H259   1.087       .  S
C251        C252   1.345       .  D
C252        H260   1.084       .  S
C253        H261   1.087       .  S
C253        C254   1.345       .  D
C254        H262   1.086       .  S
C263        C271   1.485       .  S
C263        C264   1.404       .  A
C263        C268   1.405       .  A
C264        C265   1.402       .  A
C264        H273   1.083       .  S
C265        C266   1.407       .  A
C265        H274   1.082       .  S
C266        C269   1.483       .  S
C266        C267   1.403       .  A
C267        C268   1.397       .  A
C267        H275   1.084       .  S
C268        H276   1.083       .  S
C269        H277   1.087       .  S
C269        C270   1.347       .  D
C270        H278   1.086       .  S
C271        H279   1.087       .  S
C271        C272   1.345       .  D
C272        H280   1.086       .  S
C281        C289   1.482       .  S
C281        C282   1.402       .  A
C281        C286   1.408       .  A
C282        C283   1.396       .  A
C282        H291   1.083       .  S
C283        C284   1.405       .  A
C283        H292   1.083       .  S
C284        C287   1.477       .  S
C284        C285   1.401       .  A
C285        C286   1.397       .  A
C285        H293   1.083       .  S
C286        H294   1.082       .  S
C287        H295   1.087       .  S
C287        C288   1.342       .  D
C288        H296   1.086       .  S
C289        H297   1.087       .  S
C289        C290   1.344       .  D
C290        H298   1.085       .  S
C299        C307   1.487       .  S
C299        C300   1.402   1_545  A
C299        C304   1.409       .  A
C300        C301   1.396       .  A
C300        H309   1.083   1_565  S
C301        C302   1.408       .  A
C301        H310   1.081       .  S
C302        C305   1.487       .  S
C302        C303   1.403       .  A
C303        C304   1.399   1_565  A
C303        H311   1.083       .  S
C304        H312   1.081       .  S
C305        H313   1.087       .  S
C305        C306   1.344       .  D
C306        H314   1.084       .  S
C307        H315   1.087       .  S
C307        C308   1.344       .  D
C308        H316   1.085       .  S
C317        C325   1.477       .  S
C317        C318   1.407       .  A
C317        C322   1.400       .  A
C318        C319   1.397       .  A
C318        H327   1.081       .  S
C319        C320   1.408       .  A
C319        H328   1.080       .  S
C320        C323   1.479       .  S
C320        C321   1.403       .  A
C321        C322   1.391       .  A
C321        H329   1.084       .  S
C322        H330   1.084       .  S
C323        H331   1.087       .  S
C323        C324   1.345       .  D
C324        H332   1.083       .  S
C325        H333   1.087       .  S
C325        C326   1.343       .  D
C326        H334   1.084       .  S
C335        C343   1.485       .  S
C335        C336   1.404       .  A
C335        C908   1.406   1_554  A
C336        C337   1.399       .  A
C336        H345   1.083       .  S
C337        C906   1.409       .  A
C337        H346   1.080       .  S
C338        C341   1.490       .  S
C338        C339   1.405       .  A
C338        C905   1.409       .  A
C339        C340   1.399       .  A
C339        H347   1.083       .  S
C340        C903   1.407       .  A
C340        H348   1.081       .  S
C341        H349   1.087       .  S
C341        C910   1.347       .  D
C342        H350   1.083       .  S
C342        C909   1.346       .  D
C343        H351   1.087       .  S
C343        C344   1.348   1_554  D
C344        H920   1.084       .  S
H352        C912   1.084       .  S
C353        C361   1.482   1_655  S
C353        C354   1.401       .  A
C353        C358   1.407       .  A
C354        C355   1.396       .  A
C354        H363   1.083   1_655  S
C355        C356   1.409       .  A
C355        H364   1.080       .  S
C356        C359   1.487       .  S
C356        C357   1.403       .  A
C357        C358   1.396       .  A
C357        H365   1.083       .  S
C358        H366   1.082       .  S
C359        H367   1.087       .  S
C359        C360   1.345       .  D
C360        H368   1.083       .  S
C361        H369   1.087       .  S
C361        C362   1.344   1_455  D
C362        H370   1.085       .  S
C371        C379   1.476       .  S
C371        C372   1.400       .  A
C371        C376   1.407       .  A
C372        C373   1.394       .  A
C372        H381   1.084       .  S
C373        C374   1.408       .  A
C373        H382   1.082       .  S
C374        C377   1.482       .  S
C374        C375   1.401       .  A
C375        C376   1.397       .  A
C375        H383   1.083       .  S
C376        H384   1.082   1_655  S
C377        H385   1.087       .  S
C377        C378   1.342       .  D
C378        H386   1.085       .  S
C379        H387   1.088       .  S
C379        C380   1.340   1_655  D
C380        H388   1.086       .  S
C389        C397   1.478       .  S
C389        C390   1.400       .  A
C389        C394   1.407       .  A
C390        C391   1.391       .  A
C390        H399   1.084       .  S
C391        C392   1.407       .  A
C391        H400   1.082       .  S
C392        C395   1.484       .  S
C392        C393   1.404       .  A
C393        C394   1.402       .  A
C393        H401   1.083       .  S
C394        H402   1.082       .  S
C395        H403   1.087       .  S
C395        C396   1.343       .  D
C396        H404   1.086       .  S
C397        H405   1.087       .  S
C397        C398   1.344   1_565  D
C398        H406   1.086       .  S
C407        C415   1.473       .  S
C407        C408   1.401       .  A
C407        C412   1.405       .  A
C408        C409   1.397       .  A
C408        H417   1.083       .  S
C409        C410   1.406       .  A
C409        H418   1.083       .  S
C410        C413   1.472       .  S
C410        C411   1.400       .  A
C411        C412   1.393       .  A
C411        H419   1.084       .  S
C412        H420   1.083       .  S
C413        H421   1.088       .  S
C413        C414   1.342       .  D
C414        H422   1.086       .  S
C415        H423   1.087       .  S
C415        C416   1.339       .  D
C416        H424   1.087   1_565  S
C425        C433   1.484       .  S
C425        C426   1.401       .  A
C425        C998   1.410       .  A
C426        C427   1.395       .  A
C426        H435   1.083       .  S
C427        C996   1.408       .  A
C427        H436   1.081       .  S
C428        C431   1.480       .  S
C428        C429   1.401       .  A
C428        C995   1.408       .  A
C429        C430   1.394       .  A
C429        H437   1.084       .  S
C430        C993   1.408       .  A
C430        H438   1.081       .  S
C431        H439   1.087       .  S
C431       C1000   1.343       .  D
C432        H440   1.085       .  S
C432        C999   1.343       .  D
C433        H441   1.087       .  S
C433        C434   1.342       .  D
C434       H1010   1.084   1_554  S
H442       C1002   1.084       .  S
C443        C451   1.492       .  S
C443        C444   1.404       .  A
C443        C448   1.410       .  A
C444        C445   1.398       .  A
C444        H453   1.083       .  S
C445        C446   1.407       .  A
C445        H454   1.081       .  S
C446        C449   1.489       .  S
C446        C447   1.403       .  A
C447        C448   1.400       .  A
C447        H455   1.083       .  S
C448        H456   1.079       .  S
C449        H457   1.087       .  S
C449        C450   1.346       .  D
C450        H458   1.084       .  S
C451        H459   1.087       .  S
C451        C452   1.347       .  D
C452        H460   1.082       .  S
C461        C469   1.475       .  S
C461        C462   1.399       .  A
C461        C466   1.407       .  A
C462        C463   1.394       .  A
C462        H471   1.084       .  S
C463        C464   1.409       .  A
C463        H472   1.081       .  S
C464        C467   1.478       .  S
C464        C465   1.400       .  A
C465        C466   1.393       .  A
C465        H473   1.083       .  S
C466        H474   1.082       .  S
C467        H475   1.087       .  S
C467        C468   1.338       .  D
C468        H476   1.085       .  S
C469        H477   1.087       .  S
C469        C470   1.340       .  D
C470        H478   1.086       .  S
C479        C487   1.477       .  S
C479        C480   1.402       .  A
C479        C484   1.409       .  A
C480        C481   1.388       .  A
C480        H489   1.084       .  S
C481        C482   1.401       .  A
C481        H490   1.084       .  S
C482        C485   1.473       .  S
C482        C483   1.402       .  A
C483        C484   1.402       .  A
C483        H491   1.083       .  S
C484        H492   1.081       .  S
C485        H493   1.086       .  S
C485        C486   1.343       .  D
C486        H494   1.088       .  S
C487        H495   1.089       .  S
C487        C488   1.344       .  D
C488        H496   1.084       .  S
C497        C505   1.475       .  S
C497        C498   1.400       .  A
C497        C502   1.406       .  A
C498        C499   1.392       .  A
C498        H507   1.084       .  S
C499        C500   1.406       .  A
C499        H508   1.082       .  S
C500        C503   1.480       .  S
C500        C501   1.404       .  A
C501        C502   1.399       .  A
C501        H509   1.083       .  S
C502        H510   1.082       .  S
C503        H511   1.087       .  S
C503        C504   1.343       .  D
C504        H512   1.086       .  S
C505        H513   1.088       .  S
C505        C506   1.343       .  D
C506        H514   1.086       .  S
C515        C523   1.490       .  S
C515        C516   1.402       .  A
C515        C520   1.408       .  A
C516        C517   1.401       .  A
C516        H525   1.083       .  S
C517        C518   1.411       .  A
C517        H526   1.080       .  S
C518        C521   1.494       .  S
C518        C519   1.404       .  A
C519        C520   1.399       .  A
C519        H527   1.083       .  S
C520        H528   1.082       .  S
C521        H529   1.087       .  S
C521        C522   1.346       .  D
C522        H530   1.083       .  S
C523        H531   1.087       .  S
C523        C524   1.345       .  D
C524        H532   1.085       .  S
C533        C541   1.494       .  S
C533        C534   1.404       .  A
C533        C538   1.412       .  A
C534        C535   1.400       .  A
C534        H543   1.083       .  S
C535        C536   1.409       .  A
C535        H544   1.081       .  S
C536        C539   1.489       .  S
C536        C537   1.401       .  A
C537        C538   1.399       .  A
C537        H545   1.084       .  S
C538        H546   1.080       .  S
C539        H547   1.087       .  S
C539        C540   1.344       .  D
C540        H548   1.085       .  S
C541        H549   1.087       .  S
C541        C542   1.345       .  D
C542        H550   1.083       .  S
C551        C559   1.486       .  S
C551        C552   1.403       .  A
C551       C1124   1.409       .  A
C552        C553   1.396       .  A
C552        H561   1.084       .  S
C553       C1122   1.407       .  A
C553        H562   1.081       .  S
C554        C557   1.487   1_554  S
C554        C555   1.402       .  A
C554       C1121   1.407   1_554  A
C555        C556   1.399       .  A
C555        H563   1.083       .  S
C556       C1119   1.410       .  A
C556        H564   1.079       .  S
C557        H565   1.087   1_556  S
C557        C558   1.345       .  D
C558       H1134   1.084       .  S
C559        H567   1.087       .  S
C559       C1128   1.346       .  D
C560        H568   1.082       .  S
C560       C1127   1.346       .  D
H566       C1126   1.085       .  S
C569        N574   1.355       .  A
C569       C1128   1.476       .  S
N570        C571   1.358   1_554  A
C571        N572   1.364   1_556  A
C571       C1108   1.481       .  S
C573        N574   1.358       .  A
C573       C1092   1.476       .  S
O575        C590   1.263       .  A
O575       Al583   1.909       .  S
C576       C1018   1.470       .  S
C576        O586   1.259       .  A
C576        O577   1.262       .  A
O577       Al579   1.919       .  S
O578        C580   1.262       .  A
O578       Al579   1.895       .  S
Al579       O587   1.898       .  S
Al579       O589   1.900       .  S
Al579       O588   1.778       .  S
C580       C1072   1.473       .  S
C580        O593   1.264       .  A
O581        C591   1.257       .  A
O581       Al583   1.901       .  S
O582        C595   1.258       .  A
O582       Al592   1.883       .  S
Al583       O596   1.936       .  S
Al583       O593   1.918       .  S
Al583       O588   1.788       .  S
O584        C591   1.260       .  A
O584       Al592   1.892       .  S
O585        C594   1.259       .  A
O585       Al592   1.908       .  S
O586       Al592   1.893       .  S
O587        C594   1.261       .  A
O588       Al592   1.782       .  S
O589        C590   1.259       .  A
C590       C1110   1.473       .  S
C591       C1056   1.473       .  S
C594       C1036   1.468       .  S
C595       C1090   1.473       .  S
C595        O596   1.268       .  A
C597        N602   1.358       .  A
C597       C1000   1.470       .  S
N598        C599   1.358       .  A
C599       C1074   1.475   1_554  S
N600        C601   1.352       .  A
C601        N602   1.356       .  A
C601       C1054   1.464       .  S
C603        N604   1.360       .  A
C603        N608   1.354       .  A
C603       C1038   1.469       .  S
N604        C605   1.359       .  A
C605        N606   1.362   1_545  A
C605        C966   1.479       .  S
N606        C607   1.358   1_565  A
C607        N608   1.352       .  A
C607        C984   1.468   1_545  S
O609        C624   1.267       .  A
O609       Al617   1.933       .  S
C610       C1002   1.465       .  S
C610        O611   1.259       .  A
O611       Al613   1.893       .  S
O612        C614   1.262       .  A
O612       Al613   1.918       .  S
Al613       O621   1.929       .  S
Al613       O623   1.875       .  S
Al613       O622   1.779       .  S
C614        C928   1.474       .  S
C614        O627   1.255       .  A
O615        C625   1.269       .  A
O616        C629   1.256       .  A
O616       Al626   1.888       .  S
Al617       O627   1.884       .  S
Al617       O622   1.786       .  S
O618        C625   1.259       .  A
O618       Al626   1.874       .  S
O619       Al626   1.884   1_554  S
O620       Al626   1.908   1_554  S
O621        C628   1.266       .  A
O623        C624   1.258       .  A
C624        C964   1.470       .  S
C625        C946   1.470       .  S
C628        C910   1.473       .  S
C629        C982   1.472       .  S
C629        O630   1.255   1_556  A
C631        N632   1.358       .  A
C631        N636   1.359       .  A
C631        C894   1.467       .  S
N632        C633   1.359       .  A
C633        N634   1.355       .  A
C633        C930   1.474   1_455  S
N634        C635   1.358       .  A
C635        N636   1.355       .  A
C635        C948   1.473       .  S
C637        N638   1.365       .  A
C637        N642   1.355       .  A
C637        C876   1.477       .  S
N638        C639   1.364       .  A
C639        N640   1.359       .  A
C639        C838   1.480       .  S
N640        C641   1.354       .  A
C641        N642   1.354       .  A
C641        C858   1.473       .  S
O643        C658   1.264       .  A
C644       C1126   1.473       .  S
C644        O654   1.257       .  A
O645       Al647   1.904       .  S
O646        C648   1.259       .  A
O646       Al647   1.883       .  S
Al647       O655   1.875       .  S
Al647       O657   1.901       .  S
C648        C856   1.469       .  S
C648        O661   1.267       .  A
O649        C659   1.261       .  A
O649       Al651   1.895       .  S
O650        C663   1.257       .  A
O650       Al660   1.891       .  S
Al651       O664   1.920       .  S
Al651       O656   1.791       .  S
O652        C659   1.267       .  A
O652       Al660   1.925       .  S
O653        C662   1.269       .  A
O653       Al660   1.935       .  S
O654       Al660   1.896       .  S
O656       Al660   1.784       .  S
O657        C658   1.259       .  A
C658        C820   1.475       .  S
C659        C840   1.478       .  S
C662        C784   1.472       .  S
C663        C802   1.477       .  S
C663        O664   1.263       .  A
C665        N666   1.354       .  A
C665        N670   1.357       .  A
C665       C1020   1.475   1_455  S
N666        C667   1.356       .  A
C667        N668   1.364       .  A
C667        C804   1.477       .  S
N668        C669   1.365       .  A
C669        N670   1.357       .  A
C669        C822   1.479       .  S
C671        N676   1.360       .  A
C671        C786   1.475       .  S
N672        C673   1.357       .  A
C673        C748   1.472       .  S
N674        C675   1.352       .  A
C675        N676   1.357       .  A
C675        C766   1.470       .  S
O677        C692   1.257       .  A
O677       Al685   1.905       .  S
C678        C874   1.476       .  S
C678        O688   1.264       .  A
C678        O679   1.263       .  A
O679       Al681   1.917       .  S
O680        C682   1.260       .  A
O680       Al681   1.885       .  S
Al681       O689   1.901       .  S
Al681       O691   1.897       .  S
Al681       O690   1.779       .  S
C682        C732   1.473       .  S
C682        O695   1.268       .  A
O683        C693   1.263       .  A
O683       Al685   1.912       .  S
O684        C697   1.263       .  A
O684       Al694   1.902       .  S
Al685       O698   1.907       .  S
Al685       O695   1.932       .  S
Al685       O690   1.788       .  S
O686        C693   1.257       .  A
O686       Al694   1.894       .  S
O687        C696   1.262       .  A
O687       Al694   1.909       .  S
O688       Al694   1.911       .  S
O689        C696   1.258       .  A
O690       Al694   1.783       .  S
O691        C692   1.259       .  A
C692        C768   1.479       .  S
C693        C712   1.474       .  S
C696        C892   1.467       .  S
C697        C750   1.474       .  S
C697        O698   1.265       .  A
C699        N700   1.358       .  A
C699        C912   1.475       .  S
N700        C701   1.356       .  A
C701        N702   1.361       .  A
C701        C730   1.476       .  S
C703        N704   1.359       .  A
C703        C714   1.480       .  S
C705        C713   1.493       .  S
C705        C706   1.404       .  A
C705        C710   1.410       .  A
C706        C707   1.399       .  A
C706        H715   1.084       .  S
C707        C708   1.410       .  A
C707        H716   1.081       .  S
C708        C711   1.492       .  S
C708        C709   1.402       .  A
C709        C710   1.400       .  A
C709        H717   1.083       .  S
C710        H718   1.079       .  S
C711        H719   1.087       .  S
C711        C712   1.344       .  D
C712        H720   1.084       .  S
C713        H721   1.087       .  S
C713        C714   1.347       .  D
C714        H722   1.083       .  S
C723        C731   1.488       .  S
C723        C724   1.402       .  A
C723        C728   1.410       .  A
C724        C725   1.398       .  A
C724        H733   1.084       .  S
C725        C726   1.408       .  A
C725        H734   1.082       .  S
C726        C729   1.486       .  S
C726        C727   1.402       .  A
C727        C728   1.399       .  A
C727        H735   1.084       .  S
C728        H736   1.081       .  S
C729        H737   1.087       .  S
C729        C730   1.344       .  D
C730        H738   1.085       .  S
C731        H739   1.087       .  S
C731        C732   1.345       .  D
C732        H740   1.085       .  S
C741        C749   1.476       .  S
C741        C742   1.401       .  A
C741        C746   1.406       .  A
C742        C743   1.394       .  A
C742        H751   1.084       .  S
C743        C744   1.401       .  A
C743        H752   1.083       .  S
C744        C747   1.475       .  S
C744        C745   1.406       .  A
C745        C746   1.399       .  A
C745        H753   1.083       .  S
C746        H754   1.083       .  S
C747        H755   1.088       .  S
C747        C748   1.343       .  D
C748        H756   1.086       .  S
C749        H757   1.087       .  S
C749        C750   1.345       .  D
C750        H758   1.086       .  S
C759        C767   1.483       .  S
C759        C760   1.402       .  A
C759        C764   1.409       .  A
C760        C761   1.390       .  A
C760        H769   1.084       .  S
C761        C762   1.405       .  A
C761        H770   1.082       .  S
C762        C765   1.485       .  S
C762        C763   1.404       .  A
C763        C764   1.404       .  A
C763        H771   1.083       .  S
C764        H772   1.081       .  S
C765        H773   1.086       .  S
C765        C766   1.345       .  D
C766        H774   1.086       .  S
C767        H775   1.087       .  S
C767        C768   1.347       .  D
C768        H776   1.084       .  S
C777        C785   1.483       .  S
C777        C778   1.401       .  A
C778        C779   1.396       .  A
C778        H787   1.084       .  S
C779        H788   1.081       .  S
C780        C783   1.485       .  S
C780        C781   1.400       .  A
C781        C782   1.397       .  A
C781        H789   1.083       .  S
C782        H790   1.079       .  S
C783        H791   1.087       .  S
C783        C784   1.342       .  D
C785        H793   1.087       .  S
C786        H794   1.082       .  S
C795        C803   1.489       .  S
C795        C796   1.403       .  A
C795        C800   1.408       .  A
C796        C797   1.401       .  A
C796        H805   1.083       .  S
C797        C798   1.410       .  A
C797        H806   1.081       .  S
C798        C801   1.489       .  S
C798        C799   1.403       .  A
C799        C800   1.398       .  A
C799        H807   1.084       .  S
C800        H808   1.082       .  S
C801        H809   1.087       .  S
C801        C802   1.346       .  D
C802        H810   1.084       .  S
C803        H811   1.087       .  S
C803        C804   1.344       .  D
C804        H812   1.086       .  S
C813        C821   1.488       .  S
C813        C814   1.400       .  A
C813        C818   1.409       .  A
C814        C815   1.397       .  A
C814        H823   1.084       .  S
C815        C816   1.410       .  A
C815        H824   1.081       .  S
C816        C819   1.494       .  S
C816        C817   1.404       .  A
C817        C818   1.402       .  A
C817        H825   1.083       .  S
C818        H826   1.082       .  S
C819        H827   1.087       .  S
C819        C820   1.345       .  D
C820        H828   1.085       .  S
C821        H829   1.087       .  S
C821        C822   1.343       .  D
C822        H830   1.086       .  S
C831        C839   1.486       .  S
C831        C832   1.404       .  A
C831        C836   1.407       .  A
C832        C833   1.401       .  A
C832        H841   1.083       .  S
C833        C834   1.405       .  A
C833        H842   1.083       .  S
C834        C837   1.481       .  S
C834        C835   1.403       .  A
C835        C836   1.400       .  A
C835        H843   1.083       .  S
C836        H844   1.082       .  S
C837        H845   1.087       .  S
C837        C838   1.347       .  D
C838        H846   1.086       .  S
C839        H847   1.087       .  S
C839        C840   1.345       .  D
C840        H848   1.086       .  S
C849        C857   1.479       .  S
C849        C850   1.402       .  A
C849        C854   1.406       .  A
C850        C851   1.396       .  A
C850        H859   1.084       .  S
C851        C852   1.406       .  A
C851        H860   1.083       .  S
C852        C855   1.479       .  S
C852        C853   1.402       .  A
C853        C854   1.397       .  A
C853        H861   1.083       .  S
C854        H862   1.082       .  S
C855        H863   1.087       .  S
C855        C856   1.343       .  D
C856        H864   1.086       .  S
C857        H865   1.087       .  S
C857        C858   1.345       .  D
C858        H866   1.086       .  S
C867        C875   1.492       .  S
C867        C868   1.402   1_545  A
C867        C872   1.411       .  A
C868        C869   1.399       .  A
C868        H877   1.083   1_565  S
C869        C870   1.410       .  A
C869        H878   1.081       .  S
C870        C873   1.492       .  S
C870        C871   1.403       .  A
C871        C872   1.400   1_565  A
C871        H879   1.083       .  S
C872        H880   1.081       .  S
C873        H881   1.087       .  S
C873        C874   1.345       .  D
C874        H882   1.084       .  S
C875        H883   1.087       .  S
C875        C876   1.344       .  D
C876        H884   1.084       .  S
C885        C893   1.472       .  S
C885        C886   1.402       .  A
C885        C890   1.404       .  A
C886        C887   1.397       .  A
C886        H895   1.083       .  S
C887        C888   1.404       .  A
C887        H896   1.083       .  S
C888        C891   1.468       .  S
C888        C889   1.400       .  A
C889        C890   1.394       .  A
C889        H897   1.083       .  S
C890        H898   1.083       .  S
C891        H899   1.087       .  S
C891        C892   1.340       .  D
C892        H900   1.087       .  S
C893        H901   1.087       .  S
C893        C894   1.341       .  D
C894        H902   1.087       .  S
C903        C911   1.484       .  S
C903        C904   1.401       .  A
C904        C905   1.395       .  A
C904        H913   1.084       .  S
C905        H914   1.079       .  S
C906        C909   1.487       .  S
C906        C907   1.403   1_554  A
C907        C908   1.395       .  A
C907        H915   1.083       .  S
C908        H916   1.081       .  S
C909        H917   1.087   1_554  S
C910        H918   1.082       .  S
C911        H919   1.087       .  S
C911        C912   1.345       .  D
C921        C929   1.488       .  S
C921        C922   1.402       .  A
C921        C926   1.408       .  A
C922        C923   1.398       .  A
C922        H931   1.083   1_655  S
C923        C924   1.410       .  A
C923        H932   1.080       .  S
C924        C927   1.490       .  S
C924        C925   1.403       .  A
C925        C926   1.397       .  A
C925        H933   1.083       .  S
C926        H934   1.080       .  S
C927        H935   1.087       .  S
C927        C928   1.346       .  D
C928        H936   1.083       .  S
C929        H937   1.087   1_655  S
C929        C930   1.345       .  D
C930        H938   1.083       .  S
C939        C947   1.478       .  S
C939        C940   1.399       .  A
C939        C944   1.407       .  A
C940        C941   1.394       .  A
C940        H949   1.084       .  S
C941        C942   1.409       .  A
C941        H950   1.081       .  S
C942        C945   1.487       .  S
C942        C943   1.403       .  A
C943        C944   1.400       .  A
C943        H951   1.083       .  S
C944        H952   1.082   1_655  S
C945        H953   1.087       .  S
C945        C946   1.344       .  D
C946        H954   1.085       .  S
C947        H955   1.088       .  S
C947        C948   1.341   1_655  D
C948        H956   1.086       .  S
C957        C965   1.484       .  S
C957        C958   1.401       .  A
C957        C962   1.410       .  A
C958        C959   1.392       .  A
C958        H967   1.084       .  S
C959        C960   1.406       .  A
C959        H968   1.083       .  S
C960        C963   1.483       .  S
C960        C961   1.403       .  A
C961        C962   1.403       .  A
C961        H969   1.083       .  S
C962        H970   1.081       .  S
C963        H971   1.086       .  S
C963        C964   1.343       .  D
C964        H972   1.087       .  S
C965        H973   1.087       .  S
C965        C966   1.345   1_565  D
C966        H974   1.085       .  S
C975        C983   1.478       .  S
C975        C976   1.402       .  A
C975        C980   1.405       .  A
C976        C977   1.398       .  A
C976        H985   1.083       .  S
C977        C978   1.406       .  A
C977        H986   1.083       .  S
C978        C981   1.477       .  S
C978        C979   1.402       .  A
C979        C980   1.396       .  A
C979        H987   1.083       .  S
C980        H988   1.083       .  S
C981        H989   1.087       .  S
C981        C982   1.344       .  D
C982        H990   1.086       .  S
C983        H991   1.087       .  S
C983        C984   1.340       .  D
C984        H992   1.087       .  S
C993       C1001   1.480       .  S
C993        C994   1.401       .  A
C994        C995   1.395       .  A
C994       H1003   1.083       .  S
C995       H1004   1.081       .  S
C996        C999   1.482       .  S
C996        C997   1.401   1_554  A
C997        C998   1.396   1_556  A
C997       H1005   1.084       .  S
C998       H1006   1.081   1_554  S
C999       H1007   1.087   1_554  S
C1000      H1008   1.084       .  S
C1001      H1009   1.087       .  S
C1001      C1002   1.341       .  D
C1011      C1019   1.487       .  S
C1011      C1012   1.403       .  A
C1011      C1016   1.410       .  A
C1012      C1013   1.395       .  A
C1012      H1021   1.083       .  S
C1013      C1014   1.406       .  A
C1013      H1022   1.082       .  S
C1014      C1017   1.483       .  S
C1014      C1015   1.402       .  A
C1015      C1016   1.398       .  A
C1015      H1023   1.083       .  S
C1016      H1024   1.080       .  S
C1017      H1025   1.087       .  S
C1017      C1018   1.345       .  D
C1018      H1026   1.085       .  S
C1019      H1027   1.087       .  S
C1019      C1020   1.345       .  D
C1020      H1028   1.083       .  S
C1029      C1037   1.481       .  S
C1029      C1030   1.401       .  A
C1029      C1034   1.407       .  A
C1030      C1031   1.396       .  A
C1030      H1039   1.083       .  S
C1031      C1032   1.409       .  A
C1031      H1040   1.081       .  S
C1032      C1035   1.482       .  S
C1032      C1033   1.401       .  A
C1033      C1034   1.395       .  A
C1033      H1041   1.084       .  S
C1034      H1042   1.082       .  S
C1035      H1043   1.087       .  S
C1035      C1036   1.341       .  D
C1036      H1044   1.085       .  S
C1037      H1045   1.087       .  S
C1037      C1038   1.342       .  D
C1038      H1046   1.086       .  S
C1047      C1055   1.480       .  S
C1047      C1048   1.402       .  A
C1047      C1052   1.410       .  A
C1048      C1049   1.388       .  A
C1048      H1057   1.084       .  S
C1049      C1050   1.402       .  A
C1049      H1058   1.084       .  S
C1050      C1053   1.474       .  S
C1050      C1051   1.401       .  A
C1051      C1052   1.402       .  A
C1051      H1059   1.083       .  S
C1052      H1060   1.080       .  S
C1053      H1061   1.086       .  S
C1053      C1054   1.341       .  D
C1054      H1062   1.088       .  S
C1055      H1063   1.088       .  S
C1055      C1056   1.345       .  D
C1056      H1064   1.083       .  S
C1065      C1073   1.480       .  S
C1065      C1066   1.402       .  A
C1065      C1070   1.406       .  A
C1066      C1067   1.396       .  A
C1066      H1075   1.084       .  S
C1067      C1068   1.406       .  A
C1067      H1076   1.082       .  S
C1068      C1071   1.482       .  S
C1068      C1069   1.403       .  A
C1069      C1070   1.399       .  A
C1069      H1077   1.083       .  S
C1070      H1078   1.082       .  S
C1071      H1079   1.087       .  S
C1071      C1072   1.344       .  D
C1072      H1080   1.086       .  S
C1073      H1081   1.087       .  S
C1073      C1074   1.345       .  D
C1074      H1082   1.086       .  S
C1083      C1091   1.489       .  S
C1083      C1084   1.403       .  A
C1083      C1088   1.410       .  A
C1084      C1085   1.399       .  A
C1084      H1093   1.084       .  S
C1085      C1086   1.409       .  A
C1085      H1094   1.081       .  S
C1086      C1089   1.486       .  S
C1086      C1087   1.401       .  A
C1087      C1088   1.398       .  A
C1087      H1095   1.084       .  S
C1088      H1096   1.081       .  S
C1089      H1097   1.087       .  S
C1089      C1090   1.343       .  D
C1090      H1098   1.085       .  S
C1091      H1099   1.087       .  S
C1091      C1092   1.345       .  D
C1092      H1100   1.084       .  S
C1101      C1109   1.491       .  S
C1101      C1102   1.403       .  A
C1101      C1106   1.409       .  A
C1102      C1103   1.402       .  A
C1102      H1111   1.083       .  S
C1103      C1104   1.411       .  A
C1103      H1112   1.080       .  S
C1104      C1107   1.492       .  S
C1104      C1105   1.403       .  A
C1105      C1106   1.397       .  A
C1105      H1113   1.084       .  S
C1106      H1114   1.081       .  S
C1107      H1115   1.087       .  S
C1107      C1108   1.346       .  D
C1108      H1116   1.084       .  S
C1109      H1117   1.087       .  S
C1109      C1110   1.344       .  D
C1110      H1118   1.085       .  S
C1119      C1127   1.491       .  S
C1119      C1120   1.404   1_554  A
C1120      C1121   1.396       .  A
C1120      H1129   1.083       .  S
C1121      H1130   1.081       .  S
C1122      C1125   1.486       .  S
C1122      C1123   1.403       .  A
C1123      C1124   1.399       .  A
C1123      H1131   1.083       .  S
C1124      H1132   1.080       .  S
C1125      H1133   1.087       .  S
C1125      C1126   1.345       .  D
C1127      H1135   1.087   1_554  S
C1128      H1136   1.083       .  S
