geometry optimzed in LAMMPS
_audit_creation_date              2020-11-30 
_audit_creation_method            'lammps2cif' 
_symmetry_space_group_name_H-M    'P1' 
_symmetry_Int_Tables_number       1 
_symmetry_cell_setting            triclinic 
loop_ 
_symmetry_equiv_pos_as_xyz 
  x,y,z 
_cell_length_a                    36.57720235 
_cell_length_b                    36.58518051262943 
_cell_length_c                    30.014018470518053 
_cell_angle_alpha                 90.00028672477222 
_cell_angle_beta                  89.99982361142237 
_cell_angle_gamma                 89.99931306481433 
loop_ 
_atom_site_label 
_atom_site_type_symbol 
_atom_site_fract_x 
_atom_site_fract_y 
_atom_site_fract_z 
_atom_site_charge 
C1          C  0.33351020  0.31189874  0.12500170     0.03700
C2          C  0.34925484  0.32339445  0.16530800    -0.12500
C3          C  0.38199695  0.34379611  0.16598926     0.01200
C4          C  0.39897869  0.35192160  0.12500081    -0.11000
C5          C  0.38199499  0.34379818  0.08401306     0.03600
C6          C  0.34925279  0.32339645  0.08469471    -0.10400
H7          H  0.33524269  0.31697613  0.19603420     0.09200
H8          H  0.42544015  0.36497371  0.12500040     0.06800
H9          H  0.33524003  0.31698007  0.05397117     0.06600
C10         C  0.42879494  0.40720194  0.00000085     0.03700
C11         C  0.41730139  0.39145778  0.04030760    -0.12500
C12         C  0.39690772  0.35871502  0.04098891     0.01200
C13         C  0.38878772  0.34173273  0.00000068    -0.11000
C14         C  0.39691150  0.35871125  0.20901324     0.03600
C15         C  0.41730468  0.39145437  0.20969543    -0.10400
H16         H  0.42371571  0.40546898  0.07103221     0.09200
H17         H  0.37574379  0.31527318  0.00000058     0.06800
H18         H  0.42371742  0.40546694  0.17897125     0.06600
C19         C  0.31108856  0.15719912  0.12500207     0.03700
C20         C  0.32258078  0.14145356  0.16530846    -0.12500
C21         C  0.34297338  0.10870973  0.16598927     0.01200
C22         C  0.35109308  0.09172808  0.12500065    -0.11000
C23         C  0.34297423  0.10871122  0.08401296     0.03600
C24         C  0.32258173  0.14145493  0.08469505    -0.10400
H25         H  0.31616626  0.15546485  0.19603430     0.09200
H26         H  0.36413781  0.06526643  0.12500001     0.06800
H27         H  0.31616833  0.15546707  0.05397037     0.06600
C28         C  0.40637515  0.06189917  0.00000038     0.03700
C29         C  0.39062917  0.07339131  0.20969449    -0.12500
C30         C  0.35788599  0.09379200  0.20901291     0.01200
C31         C  0.34090487  0.10191966  0.00000070    -0.11000
C32         C  0.35788786  0.09379555  0.04098872     0.03600
C33         C  0.39063105  0.07339511  0.04030715    -0.10400
H34         H  0.40464271  0.06697515  0.17896943     0.09200
H35         H  0.31444238  0.11497196  0.00000081     0.06800
H36         H  0.40464364  0.06697815  0.07103187     0.06600
C37         C  0.17879726  0.33431300  0.12500062     0.03700
C38         C  0.16730392  0.35005739  0.08469420    -0.12500
C39         C  0.14691143  0.38280119  0.08401260     0.01200
C40         C  0.13879281  0.39978391  0.12500074    -0.11000
C41         C  0.14691260  0.38280214  0.16598883     0.03600
C42         C  0.16730475  0.35005819  0.16530717    -0.10400
H43         H  0.17371731  0.33604467  0.05396824     0.09200
H44         H  0.12574736  0.42624661  0.12500074     0.06800
H45         H  0.17371860  0.33604629  0.19603266     0.06600
C46         C  0.08351097  0.42961436  0.00000091     0.03700
C47         C  0.09925734  0.41811958  0.20969562    -0.12500
C48         C  0.13200038  0.39771909  0.20901304     0.01200
C49         C  0.14898059  0.38959321  0.00000059    -0.11000
C50         C  0.13199778  0.39771719  0.04098882     0.03600
C51         C  0.09925484  0.41811799  0.04030731    -0.10400
H52         H  0.08524332  0.42453594  0.17897007     0.09200
H53         H  0.17544394  0.37654031  0.00000048     0.06800
H54         H  0.08524154  0.42453513  0.07103342     0.06600
O55         O  0.02653956  0.03710144  0.03614462    -0.71300
O56         O  0.46334575  0.45441238  0.03614488    -0.71500
O57         O  0.03629603  0.46416599  0.03614503    -0.71300
O58         O  0.45358959  0.02734768  0.03614462    -0.71300
O59         O  0.45358891  0.02734439  0.21385748    -0.71300
O60         O  0.03629791  0.46416587  0.21385867    -0.71300
O61         O  0.46334823  0.45440914  0.21385846    -0.71300
O62         O  0.02653863  0.03710098  0.21385775    -0.71400
V63         V  0.49494274  0.49575683  0.03473180     1.35200
V64         V  0.49494341  0.49575508  0.21527114     1.35200
C65         C  0.03729145  0.05133526  0.25000171     0.78000
C66         C  0.45259535  0.44017540  0.25000259     0.78000
C67         C  0.05053132  0.45341286  0.00000091     0.77900
C68         C  0.43935468  0.03810059  0.00000043     0.77900
O69         O  0.20358881  0.21416626  0.16114589    -0.71300
O70         O  0.28629612  0.27734631  0.16114583    -0.71500
O71         O  0.21334620  0.28710155  0.16114524    -0.71300
O72         O  0.27653907  0.20441089  0.16114628    -0.71300
O73         O  0.27653972  0.20441070  0.08885798    -0.71300
O74         O  0.21334626  0.28710068  0.08885696    -0.71300
O75         O  0.28629629  0.27734603  0.08885760    -0.71300
O76         O  0.20358953  0.21416557  0.08885766    -0.71400
V77         V  0.24494256  0.24575620  0.15973285     1.35200
V78         V  0.24494297  0.24575569  0.09027058     1.35200
C79         C  0.18935391  0.20341312  0.12500166     0.78000
C80         C  0.30053113  0.28809943  0.12500169     0.78000
C81         C  0.20259309  0.30133483  0.12500093     0.77900
C82         C  0.28729263  0.19017717  0.12500219     0.77900
C83         C  0.06108753  0.08431330  0.25000124     0.03700
C84         C  0.07258253  0.10005703  0.04030706    -0.12500
C85         C  0.09297583  0.13280005  0.04098863     0.01200
C86         C  0.10109324  0.14978298  0.25000079    -0.11000
C87         C  0.09297421  0.13280054  0.20901275     0.03600
C88         C  0.07258093  0.10005745  0.20969448    -0.10400
H89         H  0.06616867  0.08604537  0.07103200     0.09200
H90         H  0.11413828  0.17624502  0.25000069     0.06800
H91         H  0.06616711  0.08604544  0.17896924     0.06600
C92         C  0.15637442  0.17961451  0.12500127     0.03100
C93         C  0.14063053  0.16811775  0.16530763    -0.12500
C94         C  0.10788809  0.14771652  0.16598885     0.01200
C95         C  0.09090580  0.13959247  0.12500055    -0.11000
C96         C  0.10788886  0.14771650  0.08401264     0.03600
C97         C  0.14063117  0.16811792  0.08469439    -0.10400
H98         H  0.15464312  0.17453475  0.19603288     0.09200
H99         H  0.06444334  0.12654011  0.12500032     0.06800
H100        H  0.15464403  0.17453501  0.05396968     0.06600
C101        C  0.33351612  0.31189192  0.37500166     0.03700
C102        C  0.34926115  0.32338719  0.41530811    -0.12500
C103        C  0.38200379  0.34378826  0.41598906     0.01200
C104        C  0.39898552  0.35191276  0.37500067    -0.11000
C105        C  0.38200173  0.34379034  0.33401297     0.03600
C106        C  0.34925913  0.32338926  0.33469494    -0.10400
H107        H  0.33524903  0.31696957  0.44603378     0.09200
H108        H  0.42544872  0.36496512  0.37500018     0.06800
H109        H  0.33524539  0.31697314  0.30396969     0.06600
C110        C  0.42879936  0.40719737  0.25000247     0.03700
C111        C  0.41730740  0.39145139  0.29030864    -0.12500
C112        C  0.39691411  0.35870830  0.29098939     0.01200
C113        C  0.38879374  0.34172780  0.25000070    -0.11000
C114        C  0.39691794  0.35870456  0.45901266     0.03600
C115        C  0.41731058  0.39144806  0.45969420    -0.10400
H116        H  0.42372257  0.40546230  0.32103511     0.09200
H117        H  0.37574866  0.31526536  0.24999987     0.06800
H118        H  0.42372405  0.40546003  0.42896882     0.06600
C119        C  0.31108490  0.15719370  0.37500235     0.03700
C120        C  0.32257675  0.14144771  0.41530870    -0.12500
C121        C  0.34296892  0.10870351  0.41598929     0.01200
C122        C  0.35108818  0.09172182  0.37500077    -0.11000
C123        C  0.34296984  0.10870510  0.33401318     0.03600
C124        C  0.32257781  0.14144918  0.33469541    -0.10400
H125        H  0.31616284  0.15545920  0.44603443     0.09200
H126        H  0.36413293  0.06525950  0.37500009     0.06800
H127        H  0.31616486  0.15546178  0.30397039     0.06600
C128        C  0.40637266  0.06189462  0.25000120     0.03700
C129        C  0.39062561  0.07338560  0.45969379    -0.12500
C130        C  0.35788225  0.09378608  0.45901259     0.01200
C131        C  0.34090209  0.10191463  0.25000090    -0.11000
C132        C  0.35788412  0.09378966  0.29098916     0.03600
C133        C  0.39062744  0.07338932  0.29030787    -0.10400
H134        H  0.40463860  0.06696889  0.42896842     0.09200
H135        H  0.31443920  0.11496723  0.25000065     0.06800
H136        H  0.40463960  0.06697175  0.32103314     0.06600
C137        C  0.17880268  0.33431541  0.37500082     0.03700
C138        C  0.16730939  0.35005999  0.33469430    -0.12500
C139        C  0.14691677  0.38280382  0.33401271     0.01200
C140        C  0.13879812  0.39978690  0.37500076    -0.11000
C141        C  0.14691808  0.38280493  0.41598881     0.03600
C142        C  0.16731046  0.35006098  0.41530752    -0.10400
H143        H  0.17372251  0.33604731  0.30396859     0.09200
H144        H  0.12575346  0.42624804  0.37500069     0.06800
H145        H  0.17372404  0.33604953  0.44603216     0.06600
C146        C  0.08351399  0.42961612  0.25000243     0.03700
C147        C  0.09926152  0.41812209  0.45969431    -0.12500
C148        C  0.13200485  0.39772175  0.45901271     0.01200
C149        C  0.14898417  0.38959544  0.25000062    -0.11000
C150        C  0.13200214  0.39771971  0.29098922     0.03600
C151        C  0.09925886  0.41812033  0.29030867    -0.10400
H152        H  0.08524844  0.42453833  0.42896956     0.09200
H153        H  0.17544712  0.37654263  0.24999982     0.06800
H154        H  0.08524637  0.42453732  0.32103412     0.06600
O155        O  0.02653813  0.03710200  0.28614597    -0.71300
O156        O  0.46334832  0.45440939  0.28614669    -0.71500
O157        O  0.03629813  0.46416679  0.28614693    -0.71300
O158        O  0.45358838  0.02734472  0.28614575    -0.71300
O159        O  0.45358762  0.02734132  0.46385624    -0.71300
O160        O  0.03629997  0.46416658  0.46385682    -0.71300
O161        O  0.46335061  0.45440631  0.46385666    -0.71300
O162        O  0.02653740  0.03710125  0.46385637    -0.71400
V163        V  0.49494320  0.49575573  0.28473339     1.35200
V164        V  0.49494383  0.49575390  0.46526950     1.35200
C165        C  0.03728997  0.05133558  0.50000045     0.78000
C166        C  0.45259830  0.44017204  0.50000080     0.78000
C167        C  0.05053360  0.45341382  0.25000283     0.77900
C168        C  0.43935315  0.03809714  0.25000148     0.77900
O169        O  0.20358810  0.21416754  0.41114585    -0.71300
O170        O  0.28629966  0.27734244  0.41114596    -0.71500
O171        O  0.21334975  0.28710219  0.41114548    -0.71300
O172        O  0.27653786  0.20440757  0.41114655    -0.71300
O173        O  0.27653862  0.20440742  0.33885829    -0.71300
O174        O  0.21335015  0.28710158  0.33885723    -0.71300
O175        O  0.28629984  0.27734216  0.33885775    -0.71300
O176        O  0.20358900  0.21416659  0.33885764    -0.71400
V177        V  0.24494388  0.24575495  0.40973299     1.35200
V178        V  0.24494439  0.24575444  0.34027075     1.35200
C179        C  0.18935288  0.20341468  0.37500165     0.78000
C180        C  0.30053552  0.28809454  0.37500184     0.78000
C181        C  0.20259740  0.30133615  0.37500120     0.77900
C182        C  0.28729062  0.19017313  0.37500250     0.77900
C183        C  0.06108560  0.08431412  0.50000044     0.03700
C184        C  0.07258076  0.10005816  0.29030774    -0.12500
C185        C  0.09297387  0.13280135  0.29098898     0.01200
C186        C  0.10109188  0.14978378  0.50000060    -0.11000
C187        C  0.09297263  0.13280162  0.45901254     0.03600
C188        C  0.07257904  0.10005869  0.45969389    -0.10400
H189        H  0.06616699  0.08604670  0.32103282     0.09200
H190        H  0.11413641  0.17624523  0.50000067     0.06800
H191        H  0.06616510  0.08604695  0.42896847     0.06600
C192        C  0.15637279  0.17961650  0.37500138     0.03100
C193        C  0.14062883  0.16811974  0.41530782    -0.12500
C194        C  0.10788649  0.14771816  0.41598894     0.01200
C195        C  0.09090392  0.13959431  0.37500079    -0.11000
C196        C  0.10788701  0.14771818  0.33401288     0.03600
C197        C  0.14062946  0.16811954  0.33469461    -0.10400
H198        H  0.15464135  0.17453675  0.44603290     0.09200
H199        H  0.06444170  0.12654225  0.37500063     0.06800
H200        H  0.15464240  0.17453636  0.30396968     0.06600
C201        C  0.33351608  0.31189200  0.62499972     0.03700
C202        C  0.34925911  0.32338927  0.66530647    -0.12500
C203        C  0.38200174  0.34379035  0.66598843     0.01200
C204        C  0.39898551  0.35191275  0.62500071    -0.11000
C205        C  0.38200383  0.34378833  0.58401235     0.03600
C206        C  0.34926114  0.32338728  0.58469325    -0.10400
H207        H  0.33524544  0.31697312  0.69603169     0.09200
H208        H  0.42544896  0.36496520  0.62500118     0.06800
H209        H  0.33524909  0.31696976  0.55396776     0.06600
C210        C  0.42880373  0.40719284  0.50000083     0.03700
C211        C  0.41731073  0.39144803  0.54030741    -0.12500
C212        C  0.39691801  0.35870457  0.54098876     0.01200
C213        C  0.38879948  0.34172216  0.50000065    -0.11000
C214        C  0.39691406  0.35870829  0.70901209     0.03600
C215        C  0.41730739  0.39145138  0.70969298    -0.10400
H216        H  0.42372435  0.40545997  0.57103292     0.09200
H217        H  0.37575519  0.31525996  0.50000055     0.06800
H218        H  0.42372246  0.40546213  0.67896689     0.06600
C219        C  0.31108485  0.15719363  0.62499964     0.03700
C220        C  0.32257785  0.14144931  0.66530641    -0.12500
C221        C  0.34296998  0.10870523  0.66598829     0.01200
C222        C  0.35108812  0.09172179  0.62500049    -0.11000
C223        C  0.34296877  0.10870335  0.58401218     0.03600
C224        C  0.32257665  0.14144756  0.58469308    -0.10400
H225        H  0.31616485  0.15546203  0.69603166     0.09200
H226        H  0.36413288  0.06525943  0.62500091     0.06800
H227        H  0.31616288  0.15545885  0.55396785     0.06600
C228        C  0.40637010  0.06189000  0.50000039     0.03700
C229        C  0.39062751  0.07338921  0.70969310    -0.12500
C230        C  0.35788426  0.09378971  0.70901206     0.01200
C231        C  0.34089908  0.10190957  0.50000068    -0.11000
C232        C  0.35788211  0.09378603  0.54098862     0.03600
C233        C  0.39062547  0.07338563  0.54030716    -0.10400
H234        H  0.40463986  0.06697152  0.67896746     0.09200
H235        H  0.31443629  0.11496179  0.50000077     0.06800
H236        H  0.40463831  0.06696902  0.57103231     0.06600
C237        C  0.17880277  0.33431542  0.62499987     0.03700
C238        C  0.16731058  0.35006090  0.58469339    -0.12500
C239        C  0.14691806  0.38280477  0.58401234     0.01200
C240        C  0.13879813  0.39978679  0.62500059    -0.11000
C241        C  0.14691681  0.38280387  0.66598841     0.03600
C242        C  0.16730935  0.35006005  0.66530656    -0.10400
H243        H  0.17372435  0.33604916  0.55396813     0.09200
H244        H  0.12575339  0.42624810  0.62500092     0.06800
H245        H  0.17372233  0.33604753  0.69603191     0.06600
C246        C  0.08351716  0.42961808  0.50000099     0.03700
C247        C  0.09925903  0.41812043  0.70969295    -0.12500
C248        C  0.13200231  0.39771985  0.70901215     0.01200
C249        C  0.14898809  0.38959760  0.50000063    -0.11000
C250        C  0.13200472  0.39772159  0.54098873     0.03600
C251        C  0.09926141  0.41812205  0.54030746    -0.10400
H252        H  0.08524672  0.42453730  0.67896793     0.09200
H253        H  0.17544945  0.37654579  0.50000052     0.06800
H254        H  0.08524818  0.42453840  0.57103252     0.06600
O255        O  0.02653704  0.03710175  0.53614458    -0.71300
O256        O  0.46335038  0.45440673  0.53614488    -0.71500
O257        O  0.03629974  0.46416696  0.53614506    -0.71300
O258        O  0.45358742  0.02734174  0.53614448    -0.71300
O259        O  0.45358857  0.02734426  0.71385514    -0.71300
O260        O  0.03629828  0.46416631  0.71385482    -0.71300
O261        O  0.46334864  0.45440887  0.71385499    -0.71300
O262        O  0.02653842  0.03710156  0.71385511    -0.71400
V263        V  0.49494361  0.49575432  0.53473173     1.35200
V264        V  0.49494340  0.49575528  0.71526796     1.35200
C265        C  0.03729149  0.05133527  0.74999933     0.78000
C266        C  0.45259538  0.44017535  0.74999914     0.78000
C267        C  0.05053590  0.45341481  0.50000098     0.77900
C268        C  0.43935150  0.03809352  0.50000034     0.77900
O269        O  0.20358861  0.21416699  0.66114366    -0.71300
O270        O  0.28629946  0.27734265  0.66114361    -0.71500
O271        O  0.21334982  0.28710186  0.66114364    -0.71300
O272        O  0.27653842  0.20440778  0.66114360    -0.71300
O273        O  0.27653801  0.20440707  0.58885533    -0.71300
O274        O  0.21335011  0.28710184  0.58885539    -0.71300
O275        O  0.28629993  0.27734199  0.58885542    -0.71300
O276        O  0.20358842  0.21416700  0.58885546    -0.71400
V277        V  0.24494408  0.24575480  0.65973061     1.35200
V278        V  0.24494414  0.24575450  0.59026838     1.35200
C279        C  0.18935285  0.20341460  0.62499959     0.78000
C280        C  0.30053544  0.28809462  0.62499952     0.78000
C281        C  0.20259747  0.30133616  0.62499958     0.77900
C282        C  0.28729058  0.19017307  0.62499947     0.77900
C283        C  0.06108764  0.08431328  0.74999979     0.03700
C284        C  0.07257909  0.10005871  0.54030708    -0.12500
C285        C  0.09297264  0.13280168  0.54098854     0.01200
C286        C  0.10109330  0.14978304  0.75000057    -0.11000
C287        C  0.09297398  0.13280131  0.70901223     0.03600
C288        C  0.07258080  0.10005815  0.70969334    -0.10400
H289        H  0.06616526  0.08604705  0.57103220     0.09200
H290        H  0.11413834  0.17624501  0.75000085     0.06800
H291        H  0.06616689  0.08604668  0.67896810     0.06600
C292        C  0.15637280  0.17961645  0.62499976     0.03100
C293        C  0.14062948  0.16811949  0.66530644    -0.12500
C294        C  0.10788711  0.14771809  0.66598832     0.01200
C295        C  0.09090403  0.13959426  0.62500041    -0.11000
C296        C  0.10788644  0.14771827  0.58401220     0.03600
C297        C  0.14062879  0.16811986  0.58469321    -0.10400
H298        H  0.15464257  0.17453642  0.69603164     0.09200
H299        H  0.06444169  0.12654204  0.62500065     0.06800
H300        H  0.15464119  0.17453688  0.55396831     0.06600
C301        C  0.33351020  0.31189874  0.87499965     0.03700
C302        C  0.34925287  0.32339634  0.91530667    -0.12500
C303        C  0.38199504  0.34379808  0.91598833     0.01200
C304        C  0.39897871  0.35192161  0.87500055    -0.11000
C305        C  0.38199694  0.34379615  0.83401213     0.03600
C306        C  0.34925483  0.32339450  0.83469339    -0.10400
H307        H  0.33524013  0.31697990  0.94603028     0.09200
H308        H  0.42544005  0.36497370  0.87500091     0.06800
H309        H  0.33524262  0.31697621  0.80396716     0.06600
C310        C  0.42879938  0.40719732  0.74999928     0.03700
C311        C  0.41730466  0.39145447  0.79030629    -0.12500
C312        C  0.39691145  0.35871131  0.79098822     0.01200
C313        C  0.38879377  0.34172789  0.75000063    -0.11000
C314        C  0.39690768  0.35871498  0.95901257     0.03600
C315        C  0.41730130  0.39145775  0.95969405    -0.10400
H316        H  0.42371736  0.40546698  0.82103038     0.09200
H317        H  0.37574851  0.31526506  0.75000124     0.06800
H318        H  0.42371553  0.40546886  0.92896966     0.06600
C319        C  0.31108858  0.15719916  0.87499986     0.03700
C320        C  0.32258164  0.14145501  0.91530668    -0.12500
C321        C  0.34297428  0.10871134  0.91598848     0.01200
C322        C  0.35109307  0.09172813  0.87500059    -0.11000
C323        C  0.34297331  0.10870959  0.83401218     0.03600
C324        C  0.32258086  0.14145348  0.83469329    -0.10400
H325        H  0.31616800  0.15546727  0.94603175     0.09200
H326        H  0.36413792  0.06526627  0.87500098     0.06800
H327        H  0.31616656  0.15546463  0.80396775     0.06600
C328        C  0.40637260  0.06189452  0.74999959     0.03700
C329        C  0.39063105  0.07339503  0.95969386    -0.12500
C330        C  0.35788792  0.09379559  0.95901246     0.01200
C331        C  0.34090204  0.10191454  0.75000047    -0.11000
C332        C  0.35788587  0.09379189  0.79098829     0.03600
C333        C  0.39062910  0.07339137  0.79030645    -0.10400
H334        H  0.40464394  0.06697784  0.92896846     0.09200
H335        H  0.31443923  0.11496703  0.75000088     0.06800
H336        H  0.40464256  0.06697547  0.82103124     0.06600
C337        C  0.17879727  0.33431300  0.87500000     0.03700
C338        C  0.16730484  0.35005808  0.83469356    -0.12500
C339        C  0.14691260  0.38280206  0.83401229     0.01200
C340        C  0.13879286  0.39978395  0.87500059    -0.11000
C341        C  0.14691148  0.38280131  0.91598852     0.03600
C342        C  0.16730385  0.35005749  0.91530658    -0.10400
H343        H  0.17371875  0.33604616  0.80396802     0.09200
H344        H  0.12574743  0.42624664  0.87500088     0.06800
H345        H  0.17371705  0.33604487  0.94603229     0.06600
C346        C  0.08351399  0.42961611  0.74999940     0.03700
C347        C  0.09925488  0.41811799  0.95969427    -0.12500
C348        C  0.13199787  0.39771728  0.95901256     0.01200
C349        C  0.14898429  0.38959550  0.75000056    -0.11000
C350        C  0.13200032  0.39771903  0.79098832     0.03600
C351        C  0.09925725  0.41811955  0.79030600    -0.10400
H352        H  0.08524182  0.42453494  0.92896874     0.09200
H353        H  0.17544705  0.37654277  0.75000113     0.06800
H354        H  0.08524300  0.42453598  0.82103195     0.06600
O355        O  0.02653834  0.03710145  0.78614333    -0.71300
O356        O  0.46334792  0.45440959  0.78614321    -0.71500
O357        O  0.03629769  0.46416630  0.78614308    -0.71300
O358        O  0.45358873  0.02734486  0.78614342    -0.71300
O359        O  0.45358979  0.02734725  0.96385631    -0.71300
O360        O  0.03629622  0.46416557  0.96385673    -0.71300
O361        O  0.46334605  0.45441185  0.96385662    -0.71300
O362        O  0.02653986  0.03710092  0.96385638    -0.71400
V363        V  0.49494314  0.49575552  0.78473021     1.35200
V364        V  0.49494296  0.49575637  0.96526951     1.35200
C365        C  0.03729304  0.05133470  0.00000045     0.78000
C366        C  0.45259226  0.44017887  0.00000078     0.78000
C367        C  0.05053355  0.45341378  0.74999897     0.77900
C368        C  0.43935312  0.03809709  0.74999934     0.77900
O369        O  0.20358913  0.21416610  0.91114368    -0.71300
O370        O  0.28629603  0.27734638  0.91114370    -0.71500
O371        O  0.21334602  0.28710110  0.91114382    -0.71300
O372        O  0.27653932  0.20441102  0.91114387    -0.71300
O373        O  0.27653935  0.20441054  0.83885558    -0.71300
O374        O  0.21334640  0.28710108  0.83885554    -0.71300
O375        O  0.28629644  0.27734585  0.83885548    -0.71300
O376        O  0.20358914  0.21416581  0.83885544    -0.71400
V377        V  0.24494266  0.24575609  0.90973076     1.35200
V378        V  0.24494284  0.24575578  0.84026848     1.35200
C379        C  0.18935393  0.20341311  0.87499964     0.78000
C380        C  0.30053115  0.28809940  0.87499963     0.78000
C381        C  0.20259307  0.30133479  0.87499974     0.77900
C382        C  0.28729261  0.19017719  0.87499975     0.77900
C383        C  0.06108927  0.08431253  0.00000043     0.03700
C384        C  0.07258107  0.10005748  0.79030664    -0.12500
C385        C  0.09297421  0.13280066  0.79098850     0.01200
C386        C  0.10109532  0.14978212  0.00000067    -0.11000
C387        C  0.09297579  0.13280007  0.95901255     0.03600
C388        C  0.07258257  0.10005698  0.95969387    -0.10400
H389        H  0.06616738  0.08604555  0.82103162     0.09200
H390        H  0.11414007  0.17624363  0.00000078     0.06800
H391        H  0.06616869  0.08604528  0.92896877     0.06600
C392        C  0.15637450  0.17961445  0.87500003     0.03100
C393        C  0.14063115  0.16811797  0.91530684    -0.12500
C394        C  0.10788881  0.14771662  0.91598865     0.01200
C395        C  0.09090577  0.13959257  0.87500077    -0.11000
C396        C  0.10788807  0.14771664  0.83401246     0.03600
C397        C  0.14063056  0.16811777  0.83469366    -0.10400
H398        H  0.15464409  0.17453511  0.94603176     0.09200
H399        H  0.06444336  0.12654020  0.87500106     0.06800
H400        H  0.15464315  0.17453480  0.80396832     0.06600
C401        C  0.33351021  0.81189873  0.12500169     0.03700
C402        C  0.34925484  0.82339443  0.16530799    -0.12500
C403        C  0.38199693  0.84379609  0.16598926     0.01200
C404        C  0.39897870  0.85192159  0.12500082    -0.11000
C405        C  0.38199502  0.84379817  0.08401306     0.03600
C406        C  0.34925281  0.82339644  0.08469470    -0.10400
H407        H  0.33524268  0.81697612  0.19603418     0.09200
H408        H  0.42544016  0.86497371  0.12500043     0.06800
H409        H  0.33524005  0.81698007  0.05397116     0.06600
C410        C  0.42879495  0.90720197  0.00000086     0.03700
C411        C  0.41730142  0.89145779  0.04030760    -0.12500
C412        C  0.39690776  0.85871503  0.04098891     0.01200
C413        C  0.38878773  0.84173277  0.00000066    -0.11000
C414        C  0.39691137  0.85871128  0.20901325     0.03600
C415        C  0.41730452  0.89145441  0.20969545    -0.10400
H416        H  0.42371573  0.90546899  0.07103222     0.09200
H417        H  0.37574384  0.81527324  0.00000055     0.06800
H418        H  0.42371723  0.90546701  0.17897121     0.06600
C419        C  0.31108857  0.65719913  0.12500207     0.03700
C420        C  0.32258078  0.64145358  0.16530848    -0.12500
C421        C  0.34297341  0.60870976  0.16598927     0.01200
C422        C  0.35109312  0.59172821  0.12500066    -0.11000
C423        C  0.34297425  0.60871126  0.08401296     0.03600
C424        C  0.32258173  0.64145495  0.08469505    -0.10400
H425        H  0.31616625  0.65546486  0.19603432     0.09200
H426        H  0.36413801  0.56526634  0.12500001     0.06800
H427        H  0.31616832  0.65546708  0.05397036     0.06600
C428        C  0.40637516  0.56189922  0.00000038     0.03700
C429        C  0.39062918  0.57339131  0.20969449    -0.12500
C430        C  0.35788600  0.59379201  0.20901291     0.01200
C431        C  0.34090486  0.60191966  0.00000069    -0.11000
C432        C  0.35788785  0.59379557  0.04098872     0.03600
C433        C  0.39063104  0.57339513  0.04030716    -0.10400
H434        H  0.40464272  0.56697514  0.17896943     0.09200
H435        H  0.31444236  0.61497197  0.00000080     0.06800
H436        H  0.40464361  0.56697816  0.07103186     0.06600
C437        C  0.17879727  0.83431301  0.12500062     0.03700
C438        C  0.16730392  0.85005741  0.08469421    -0.12500
C439        C  0.14691137  0.88280116  0.08401261     0.01200
C440        C  0.13879268  0.89978389  0.12500074    -0.11000
C441        C  0.14691256  0.88280214  0.16598882     0.03600
C442        C  0.16730476  0.85005822  0.16530716    -0.10400
H443        H  0.17371733  0.83604469  0.05396824     0.09200
H444        H  0.12574723  0.92624643  0.12500075     0.06800
H445        H  0.17371863  0.83604632  0.19603265     0.06600
C446        C  0.08351097  0.92961436  0.00000091     0.03700
C447        C  0.09925726  0.91811953  0.20969561    -0.12500
C448        C  0.13200034  0.89771908  0.20901304     0.01200
C449        C  0.14898058  0.88959320  0.00000061    -0.11000
C450        C  0.13199771  0.89771715  0.04098882     0.03600
C451        C  0.09925481  0.91811799  0.04030730    -0.10400
H452        H  0.08524325  0.92453583  0.17897021     0.09200
H453        H  0.17544390  0.87654034  0.00000051     0.06800
H454        H  0.08524149  0.92453516  0.07103341     0.06600
O455        O  0.02653956  0.53710143  0.03614462    -0.71300
O456        O  0.46334576  0.95441240  0.03614488    -0.71500
O457        O  0.03629604  0.96416600  0.03614502    -0.71300
O458        O  0.45358957  0.52734770  0.03614462    -0.71300
O459        O  0.45358892  0.52734440  0.21385748    -0.71300
O460        O  0.03629793  0.96416587  0.21385868    -0.71300
O461        O  0.46334824  0.95440912  0.21385846    -0.71300
O462        O  0.02653864  0.53710098  0.21385776    -0.71400
V463        V  0.49494276  0.99575684  0.03473180     1.35200
V464        V  0.49494342  0.99575508  0.21527114     1.35200
C465        C  0.03729147  0.55133526  0.25000171     0.78000
C466        C  0.45259536  0.94017537  0.25000258     0.78000
C467        C  0.05053133  0.95341286  0.00000090     0.77900
C468        C  0.43935468  0.53810061  0.00000043     0.77900
O469        O  0.20358883  0.71416625  0.16114589    -0.71300
O470        O  0.28629613  0.77734630  0.16114583    -0.71500
O471        O  0.21334621  0.78710154  0.16114524    -0.71300
O472        O  0.27653909  0.70441088  0.16114628    -0.71300
O473        O  0.27653974  0.70441069  0.08885798    -0.71300
O474        O  0.21334628  0.78710068  0.08885696    -0.71300
O475        O  0.28629631  0.77734602  0.08885760    -0.71300
O476        O  0.20358955  0.71416556  0.08885766    -0.71400
V477        V  0.24494258  0.74575619  0.15973285     1.35200
V478        V  0.24494299  0.74575568  0.09027058     1.35200
C479        C  0.18935393  0.70341311  0.12500166     0.78000
C480        C  0.30053115  0.78809942  0.12500169     0.78000
C481        C  0.20259310  0.80133483  0.12500093     0.77900
C482        C  0.28729265  0.69017717  0.12500219     0.77900
C483        C  0.06108756  0.58431331  0.25000124     0.03700
C484        C  0.07258249  0.60005705  0.04030705    -0.12500
C485        C  0.09297575  0.63280008  0.04098864     0.01200
C486        C  0.10109323  0.64978310  0.25000079    -0.11000
C487        C  0.09297422  0.63280058  0.20901276     0.03600
C488        C  0.07258097  0.60005747  0.20969449    -0.10400
H489        H  0.06616861  0.58604535  0.07103205     0.09200
H490        H  0.11413812  0.67624493  0.25000069     0.06800
H491        H  0.06616717  0.58604545  0.17896926     0.06600
C492        C  0.15637443  0.67961449  0.12500126     0.03100
C493        C  0.14063055  0.66811774  0.16530762    -0.12500
C494        C  0.10788812  0.64771652  0.16598885     0.01200
C495        C  0.09090580  0.63959246  0.12500057    -0.11000
C496        C  0.10788884  0.64771650  0.08401264     0.03600
C497        C  0.14063117  0.66811790  0.08469438    -0.10400
H498        H  0.15464314  0.67453474  0.19603287     0.09200
H499        H  0.06444335  0.62654012  0.12500036     0.06800
H500        H  0.15464402  0.67453500  0.05396966     0.06600
C501        C  0.33351612  0.81189189  0.37500165     0.03700
C502        C  0.34926116  0.82338717  0.41530811    -0.12500
C503        C  0.38200380  0.84378825  0.41598906     0.01200
C504        C  0.39898553  0.85191275  0.37500067    -0.11000
C505        C  0.38200171  0.84379033  0.33401297     0.03600
C506        C  0.34925912  0.82338924  0.33469494    -0.10400
H507        H  0.33524905  0.81696956  0.44603378     0.09200
H508        H  0.42544873  0.86496512  0.37500016     0.06800
H509        H  0.33524538  0.81697313  0.30396969     0.06600
C510        C  0.42879932  0.90719736  0.25000246     0.03700
C511        C  0.41730737  0.89145138  0.29030864    -0.12500
C512        C  0.39691402  0.85870833  0.29098938     0.01200
C513        C  0.38879368  0.84172780  0.25000071    -0.11000
C514        C  0.39691796  0.85870455  0.45901267     0.03600
C515        C  0.41731061  0.89144805  0.45969419    -0.10400
H516        H  0.42372261  0.90546225  0.32103510     0.09200
H517        H  0.37574868  0.81526527  0.24999989     0.06800
H518        H  0.42372408  0.90546000  0.42896881     0.06600
C519        C  0.31108488  0.65719368  0.37500235     0.03700
C520        C  0.32257676  0.64144771  0.41530870    -0.12500
C521        C  0.34296894  0.60870351  0.41598928     0.01200
C522        C  0.35108820  0.59172182  0.37500077    -0.11000
C523        C  0.34296986  0.60870510  0.33401318     0.03600
C524        C  0.32257782  0.64144918  0.33469541    -0.10400
H525        H  0.31616284  0.65545919  0.44603443     0.09200
H526        H  0.36413295  0.56525950  0.37500009     0.06800
H527        H  0.31616486  0.65546177  0.30397039     0.06600
C528        C  0.40637267  0.56189462  0.25000119     0.03700
C529        C  0.39062563  0.57338559  0.45969380    -0.12500
C530        C  0.35788227  0.59378608  0.45901259     0.01200
C531        C  0.34090211  0.60191462  0.25000090    -0.11000
C532        C  0.35788414  0.59378965  0.29098916     0.03600
C533        C  0.39062746  0.57338932  0.29030787    -0.10400
H534        H  0.40463862  0.56696888  0.42896842     0.09200
H535        H  0.31443921  0.61496722  0.25000066     0.06800
H536        H  0.40463962  0.56697175  0.32103314     0.06600
C537        C  0.17880269  0.83431543  0.37500081     0.03700
C538        C  0.16730940  0.85005999  0.33469429    -0.12500
C539        C  0.14691679  0.88280382  0.33401270     0.01200
C540        C  0.13879812  0.89978687  0.37500075    -0.11000
C541        C  0.14691806  0.88280491  0.41598881     0.03600
C542        C  0.16731047  0.85006099  0.41530751    -0.10400
H543        H  0.17372253  0.83604732  0.30396857     0.09200
H544        H  0.12575339  0.92624808  0.37500069     0.06800
H545        H  0.17372404  0.83604953  0.44603216     0.06600
C546        C  0.08351397  0.92961610  0.25000244     0.03700
C547        C  0.09926150  0.91812208  0.45969432    -0.12500
C548        C  0.13200479  0.89772170  0.45901271     0.01200
C549        C  0.14898416  0.88959545  0.25000060    -0.11000
C550        C  0.13200215  0.89771971  0.29098921     0.03600
C551        C  0.09925886  0.91812033  0.29030867    -0.10400
H552        H  0.08524839  0.92453836  0.42896954     0.09200
H553        H  0.17544712  0.87654265  0.24999979     0.06800
H554        H  0.08524639  0.92453732  0.32103412     0.06600
O555        O  0.02653813  0.53710200  0.28614597    -0.71300
O556        O  0.46334834  0.95440938  0.28614668    -0.71500
O557        O  0.03629815  0.96416679  0.28614693    -0.71300
O558        O  0.45358838  0.52734472  0.28614575    -0.71300
O559        O  0.45358764  0.52734132  0.46385625    -0.71300
O560        O  0.03629999  0.96416657  0.46385682    -0.71300
O561        O  0.46335063  0.95440628  0.46385665    -0.71300
O562        O  0.02653739  0.53710126  0.46385637    -0.71400
V563        V  0.49494320  0.99575573  0.28473339     1.35200
V564        V  0.49494382  0.99575389  0.46526950     1.35200
C565        C  0.03728999  0.55133558  0.50000045     0.78000
C566        C  0.45259825  0.94017205  0.50000078     0.78000
C567        C  0.05053361  0.95341382  0.25000284     0.77900
C568        C  0.43935316  0.53809714  0.25000148     0.77900
O569        O  0.20358811  0.71416756  0.41114585    -0.71300
O570        O  0.28629968  0.77734241  0.41114596    -0.71500
O571        O  0.21334983  0.78710227  0.41114548    -0.71300
O572        O  0.27653783  0.70440755  0.41114655    -0.71300
O573        O  0.27653861  0.70440741  0.33885829    -0.71300
O574        O  0.21335013  0.78710157  0.33885723    -0.71300
O575        O  0.28629977  0.77734221  0.33885775    -0.71300
O576        O  0.20358902  0.71416657  0.33885764    -0.71400
V577        V  0.24494389  0.74575497  0.40973300     1.35200
V578        V  0.24494437  0.74575445  0.34027076     1.35200
C579        C  0.18935290  0.70341467  0.37500165     0.78000
C580        C  0.30053550  0.78809454  0.37500184     0.78000
C581        C  0.20259743  0.80133619  0.37500120     0.77900
C582        C  0.28729057  0.69017310  0.37500250     0.77900
C583        C  0.06108563  0.58431412  0.50000043     0.03700
C584        C  0.07258079  0.60005818  0.29030773    -0.12500
C585        C  0.09297388  0.63280139  0.29098897     0.01200
C586        C  0.10109191  0.64978378  0.50000061    -0.11000
C587        C  0.09297264  0.63280165  0.45901254     0.03600
C588        C  0.07257907  0.60005870  0.45969388    -0.10400
H589        H  0.06616704  0.58604672  0.32103282     0.09200
H590        H  0.11413642  0.67624524  0.50000069     0.06800
H591        H  0.06616511  0.58604696  0.42896845     0.06600
C592        C  0.15637282  0.67961650  0.37500138     0.03100
C593        C  0.14062884  0.66811977  0.41530782    -0.12500
C594        C  0.10788646  0.64771825  0.41598895     0.01200
C595        C  0.09090396  0.63959437  0.37500079    -0.11000
C596        C  0.10788703  0.64771819  0.33401288     0.03600
C597        C  0.14062949  0.66811954  0.33469461    -0.10400
H598        H  0.15464140  0.67453675  0.44603291     0.09200
H599        H  0.06444160  0.62654220  0.37500063     0.06800
H600        H  0.15464242  0.67453635  0.30396967     0.06600
C601        C  0.33351604  0.81189204  0.62499971     0.03700
C602        C  0.34925909  0.82338927  0.66530646    -0.12500
C603        C  0.38200174  0.84379032  0.66598843     0.01200
C604        C  0.39898552  0.85191273  0.62500071    -0.11000
C605        C  0.38200384  0.84378833  0.58401235     0.03600
C606        C  0.34926114  0.82338729  0.58469325    -0.10400
H607        H  0.33524543  0.81697309  0.69603170     0.09200
H608        H  0.42544895  0.86496520  0.62500118     0.06800
H609        H  0.33524909  0.81696974  0.55396774     0.06600
C610        C  0.42880373  0.90719284  0.50000081     0.03700
C611        C  0.41731068  0.89144813  0.54030744    -0.12500
C612        C  0.39691801  0.85870460  0.54098878     0.01200
C613        C  0.38879952  0.84172217  0.50000067    -0.11000
C614        C  0.39691403  0.85870828  0.70901209     0.03600
C615        C  0.41730728  0.89145142  0.70969299    -0.10400
H616        H  0.42372419  0.90546004  0.57103275     0.09200
H617        H  0.37575524  0.81525997  0.50000057     0.06800
H618        H  0.42372228  0.90546224  0.67896683     0.06600
C619        C  0.31108484  0.65719365  0.62499964     0.03700
C620        C  0.32257781  0.64144931  0.66530642    -0.12500
C621        C  0.34296987  0.60870517  0.66598830     0.01200
C622        C  0.35108810  0.59172178  0.62500049    -0.11000
C623        C  0.34296878  0.60870336  0.58401219     0.03600
C624        C  0.32257665  0.64144755  0.58469309    -0.10400
H625        H  0.31616484  0.65546205  0.69603167     0.09200
H626        H  0.36413288  0.56525945  0.62500090     0.06800
H627        H  0.31616283  0.65545882  0.55396780     0.06600
C628        C  0.40637012  0.56188999  0.50000040     0.03700
C629        C  0.39062745  0.57338922  0.70969308    -0.12500
C630        C  0.35788417  0.59378966  0.70901206     0.01200
C631        C  0.34089910  0.60190956  0.50000068    -0.11000
C632        C  0.35788213  0.59378603  0.54098862     0.03600
C633        C  0.39062551  0.57338564  0.54030717    -0.10400
H634        H  0.40463980  0.56697156  0.67896745     0.09200
H635        H  0.31443631  0.61496177  0.50000076     0.06800
H636        H  0.40463835  0.56696908  0.57103227     0.06600
C637        C  0.17880274  0.83431541  0.62499988     0.03700
C638        C  0.16731060  0.85006091  0.58469339    -0.12500
C639        C  0.14691808  0.88280478  0.58401233     0.01200
C640        C  0.13879813  0.89978680  0.62500058    -0.11000
C641        C  0.14691676  0.88280386  0.66598841     0.03600
C642        C  0.16730924  0.85006000  0.66530655    -0.10400
H643        H  0.17372440  0.83604918  0.55396812     0.09200
H644        H  0.12575339  0.92624811  0.62500092     0.06800
H645        H  0.17372214  0.83604742  0.69603197     0.06600
C646        C  0.08351716  0.92961809  0.50000099     0.03700
C647        C  0.09925896  0.91812036  0.70969294    -0.12500
C648        C  0.13200227  0.89771985  0.70901213     0.01200
C649        C  0.14898807  0.88959758  0.50000062    -0.11000
C650        C  0.13200472  0.89772159  0.54098873     0.03600
C651        C  0.09926142  0.91812204  0.54030747    -0.10400
H652        H  0.08524663  0.92453717  0.67896795     0.09200
H653        H  0.17544941  0.87654582  0.50000049     0.06800
H654        H  0.08524820  0.92453840  0.57103253     0.06600
O655        O  0.02653705  0.53710174  0.53614458    -0.71300
O656        O  0.46335022  0.95440679  0.53614487    -0.71500
O657        O  0.03629975  0.96416696  0.53614506    -0.71300
O658        O  0.45358749  0.52734173  0.53614449    -0.71300
O659        O  0.45358853  0.52734425  0.71385514    -0.71300
O660        O  0.03629828  0.96416630  0.71385483    -0.71300
O661        O  0.46334860  0.95440896  0.71385498    -0.71300
O662        O  0.02653838  0.53710156  0.71385511    -0.71400
V663        V  0.49494352  0.99575432  0.53473173     1.35200
V664        V  0.49494344  0.99575530  0.71526796     1.35200
C665        C  0.03729149  0.55133525  0.74999933     0.78000
C666        C  0.45259538  0.94017539  0.74999913     0.78000
C667        C  0.05053592  0.95341481  0.50000099     0.77900
C668        C  0.43935153  0.53809351  0.50000036     0.77900
O669        O  0.20358860  0.71416697  0.66114366    -0.71300
O670        O  0.28629947  0.77734262  0.66114361    -0.71500
O671        O  0.21334984  0.78710187  0.66114365    -0.71300
O672        O  0.27653831  0.70440772  0.66114360    -0.71300
O673        O  0.27653801  0.70440708  0.58885533    -0.71300
O674        O  0.21335012  0.78710185  0.58885539    -0.71300
O675        O  0.28629993  0.77734197  0.58885541    -0.71300
O676        O  0.20358835  0.71416704  0.58885546    -0.71400
V677        V  0.24494405  0.74575478  0.65973061     1.35200
V678        V  0.24494412  0.74575450  0.59026837     1.35200
C679        C  0.18935282  0.70341460  0.62499959     0.78000
C680        C  0.30053542  0.78809462  0.62499952     0.78000
C681        C  0.20259747  0.80133617  0.62499958     0.77900
C682        C  0.28729055  0.69017306  0.62499947     0.77900
C683        C  0.06108768  0.58431325  0.74999979     0.03700
C684        C  0.07257911  0.60005870  0.54030707    -0.12500
C685        C  0.09297266  0.63280167  0.54098854     0.01200
C686        C  0.10109328  0.64978303  0.75000057    -0.11000
C687        C  0.09297393  0.63280135  0.70901223     0.03600
C688        C  0.07258085  0.60005809  0.70969331    -0.10400
H689        H  0.06616528  0.58604703  0.57103219     0.09200
H690        H  0.11413835  0.67624506  0.75000085     0.06800
H691        H  0.06616704  0.58604667  0.67896824     0.06600
C692        C  0.15637278  0.67961643  0.62499978     0.03100
C693        C  0.14062944  0.66811948  0.66530646    -0.12500
C694        C  0.10788703  0.64771814  0.66598831     0.01200
C695        C  0.09090402  0.63959427  0.62500040    -0.11000
C696        C  0.10788645  0.64771825  0.58401219     0.03600
C697        C  0.14062880  0.66811984  0.58469322    -0.10400
H698        H  0.15464252  0.67453638  0.69603162     0.09200
H699        H  0.06444165  0.62654199  0.62500063     0.06800
H700        H  0.15464120  0.67453686  0.55396833     0.06600
C701        C  0.33351018  0.81189874  0.87499964     0.03700
C702        C  0.34925287  0.82339633  0.91530666    -0.12500
C703        C  0.38199503  0.84379811  0.91598833     0.01200
C704        C  0.39897873  0.85192161  0.87500055    -0.11000
C705        C  0.38199695  0.84379613  0.83401213     0.03600
C706        C  0.34925483  0.82339448  0.83469339    -0.10400
H707        H  0.33524013  0.81697991  0.94603027     0.09200
H708        H  0.42544006  0.86497371  0.87500092     0.06800
H709        H  0.33524262  0.81697620  0.80396715     0.06600
C710        C  0.42879937  0.90719735  0.74999926     0.03700
C711        C  0.41730468  0.89145446  0.79030627    -0.12500
C712        C  0.39691146  0.85871130  0.79098822     0.01200
C713        C  0.38879378  0.84172787  0.75000064    -0.11000
C714        C  0.39690766  0.85871505  0.95901256     0.03600
C715        C  0.41730132  0.89145780  0.95969405    -0.10400
H716        H  0.42371741  0.90546697  0.82103037     0.09200
H717        H  0.37574854  0.81526503  0.75000125     0.06800
H718        H  0.42371559  0.90546891  0.92896964     0.06600
C719        C  0.31108860  0.65719915  0.87499986     0.03700
C720        C  0.32258166  0.64145501  0.91530668    -0.12500
C721        C  0.34297429  0.60871134  0.91598848     0.01200
C722        C  0.35109309  0.59172812  0.87500058    -0.11000
C723        C  0.34297333  0.60870959  0.83401218     0.03600
C724        C  0.32258086  0.64145346  0.83469330    -0.10400
H725        H  0.31616802  0.65546727  0.94603175     0.09200
H726        H  0.36413794  0.56526627  0.87500098     0.06800
H727        H  0.31616652  0.65546461  0.80396771     0.06600
C728        C  0.40637258  0.56189454  0.74999956     0.03700
C729        C  0.39063105  0.57339505  0.95969386    -0.12500
C730        C  0.35788791  0.59379559  0.95901246     0.01200
C731        C  0.34090201  0.60191453  0.75000049    -0.11000
C732        C  0.35788587  0.59379189  0.79098829     0.03600
C733        C  0.39062910  0.57339138  0.79030643    -0.10400
H734        H  0.40464391  0.56697786  0.92896847     0.09200
H735        H  0.31443918  0.61496705  0.75000092     0.06800
H736        H  0.40464258  0.56697547  0.82103120     0.06600
C737        C  0.17879724  0.83431299  0.87500000     0.03700
C738        C  0.16730474  0.85005804  0.83469356    -0.12500
C739        C  0.14691253  0.88280204  0.83401229     0.01200
C740        C  0.13879273  0.89978393  0.87500060    -0.11000
C741        C  0.14691146  0.88280131  0.91598852     0.03600
C742        C  0.16730386  0.85005751  0.91530657    -0.10400
H743        H  0.17371862  0.83604613  0.80396806     0.09200
H744        H  0.12574735  0.92624649  0.87500090     0.06800
H745        H  0.17371712  0.83604491  0.94603229     0.06600
C746        C  0.08351397  0.92961610  0.74999940     0.03700
C747        C  0.09925489  0.91811799  0.95969428    -0.12500
C748        C  0.13199786  0.89771728  0.95901257     0.01200
C749        C  0.14898428  0.88959552  0.75000054    -0.11000
C750        C  0.13200031  0.89771905  0.79098831     0.03600
C751        C  0.09925725  0.91811956  0.79030599    -0.10400
H752        H  0.08524181  0.92453493  0.92896875     0.09200
H753        H  0.17544706  0.87654280  0.75000110     0.06800
H754        H  0.08524300  0.92453599  0.82103192     0.06600
O755        O  0.02653835  0.53710144  0.78614333    -0.71300
O756        O  0.46334795  0.95440960  0.78614320    -0.71500
O757        O  0.03629770  0.96416631  0.78614309    -0.71300
O758        O  0.45358862  0.52734480  0.78614341    -0.71300
O759        O  0.45358977  0.52734726  0.96385631    -0.71300
O760        O  0.03629623  0.96416557  0.96385673    -0.71300
O761        O  0.46334606  0.95441188  0.96385662    -0.71300
O762        O  0.02653986  0.53710090  0.96385638    -0.71400
V763        V  0.49494320  0.99575553  0.78473021     1.35200
V764        V  0.49494298  0.99575638  0.96526951     1.35200
C765        C  0.03729305  0.55133468  0.00000045     0.78000
C766        C  0.45259226  0.94017891  0.00000078     0.78000
C767        C  0.05053355  0.95341378  0.74999898     0.77900
C768        C  0.43935307  0.53809708  0.74999932     0.77900
O769        O  0.20358914  0.71416609  0.91114368    -0.71300
O770        O  0.28629601  0.77734637  0.91114370    -0.71500
O771        O  0.21334603  0.78710110  0.91114382    -0.71300
O772        O  0.27653933  0.70441101  0.91114387    -0.71300
O773        O  0.27653937  0.70441055  0.83885558    -0.71300
O774        O  0.21334639  0.78710106  0.83885554    -0.71300
O775        O  0.28629634  0.77734591  0.83885548    -0.71300
O776        O  0.20358915  0.71416578  0.83885545    -0.71400
V777        V  0.24494266  0.74575608  0.90973076     1.35200
V778        V  0.24494282  0.74575578  0.84026849     1.35200
C779        C  0.18935394  0.70341309  0.87499964     0.78000
C780        C  0.30053108  0.78809943  0.87499963     0.78000
C781        C  0.20259307  0.80133480  0.87499973     0.77900
C782        C  0.28729263  0.69017718  0.87499975     0.77900
C783        C  0.06108928  0.58431251  0.00000042     0.03700
C784        C  0.07258109  0.60005747  0.79030664    -0.12500
C785        C  0.09297423  0.63280066  0.79098850     0.01200
C786        C  0.10109530  0.64978212  0.00000067    -0.11000
C787        C  0.09297581  0.63280006  0.95901255     0.03600
C788        C  0.07258258  0.60005697  0.95969387    -0.10400
H789        H  0.06616739  0.58604556  0.82103161     0.09200
H790        H  0.11414008  0.67624359  0.00000078     0.06800
H791        H  0.06616871  0.58604527  0.92896876     0.06600
C792        C  0.15637452  0.67961444  0.87500003     0.03100
C793        C  0.14063117  0.66811796  0.91530685    -0.12500
C794        C  0.10788883  0.64771661  0.91598865     0.01200
C795        C  0.09090579  0.63959256  0.87500077    -0.11000
C796        C  0.10788809  0.64771664  0.83401246     0.03600
C797        C  0.14063058  0.66811776  0.83469366    -0.10400
H798        H  0.15464411  0.67453511  0.94603176     0.09200
H799        H  0.06444338  0.62654019  0.87500106     0.06800
H800        H  0.15464317  0.67453479  0.80396832     0.06600
C801        C  0.83351021  0.31189876  0.12500171     0.03700
C802        C  0.84925483  0.32339446  0.16530801    -0.12500
C803        C  0.88199694  0.34379612  0.16598927     0.01200
C804        C  0.89897870  0.35192159  0.12500083    -0.11000
C805        C  0.88199504  0.34379814  0.08401307     0.03600
C806        C  0.84925281  0.32339645  0.08469471    -0.10400
H807        H  0.83524267  0.31697614  0.19603419     0.09200
H808        H  0.92544018  0.36497374  0.12500043     0.06800
H809        H  0.83524005  0.31698012  0.05397120     0.06600
C810        C  0.92879495  0.40720193  0.00000086     0.03700
C811        C  0.91730137  0.39145779  0.04030760    -0.12500
C812        C  0.89690773  0.35871501  0.04098891     0.01200
C813        C  0.88878770  0.34173276  0.00000067    -0.11000
C814        C  0.89691146  0.35871126  0.20901324     0.03600
C815        C  0.91730464  0.39145438  0.20969543    -0.10400
H816        H  0.92371567  0.40546899  0.07103220     0.09200
H817        H  0.87574375  0.31527320  0.00000057     0.06800
H818        H  0.92371738  0.40546695  0.17897125     0.06600
C819        C  0.81108853  0.15719912  0.12500207     0.03700
C820        C  0.82258074  0.14145356  0.16530847    -0.12500
C821        C  0.84297335  0.10870972  0.16598927     0.01200
C822        C  0.85109302  0.09172812  0.12500066    -0.11000
C823        C  0.84297420  0.10871122  0.08401296     0.03600
C824        C  0.82258170  0.14145493  0.08469506    -0.10400
H825        H  0.81616623  0.15546485  0.19603430     0.09200
H826        H  0.86413784  0.06526627  0.12500001     0.06800
H827        H  0.81616831  0.15546708  0.05397038     0.06600
C828        C  0.90637512  0.06189917  0.00000038     0.03700
C829        C  0.89062915  0.07339131  0.20969449    -0.12500
C830        C  0.85788596  0.09379200  0.20901291     0.01200
C831        C  0.84090480  0.10191969  0.00000069    -0.11000
C832        C  0.85788783  0.09379555  0.04098872     0.03600
C833        C  0.89063101  0.07339511  0.04030716    -0.10400
H834        H  0.90464268  0.06697515  0.17896942     0.09200
H835        H  0.81444250  0.11497191  0.00000080     0.06800
H836        H  0.90464360  0.06697814  0.07103188     0.06600
C837        C  0.67879723  0.33431300  0.12500061     0.03700
C838        C  0.66730389  0.35005739  0.08469420    -0.12500
C839        C  0.64691139  0.38280119  0.08401260     0.01200
C840        C  0.63879278  0.39978391  0.12500074    -0.11000
C841        C  0.64691258  0.38280213  0.16598882     0.03600
C842        C  0.66730472  0.35005819  0.16530716    -0.10400
H843        H  0.67371728  0.33604467  0.05396823     0.09200
H844        H  0.62574733  0.42624661  0.12500074     0.06800
H845        H  0.67371856  0.33604628  0.19603264     0.06600
C846        C  0.58351096  0.42961434  0.00000091     0.03700
C847        C  0.59925736  0.41811955  0.20969564    -0.12500
C848        C  0.63200041  0.39771909  0.20901304     0.01200
C849        C  0.64898056  0.38959325  0.00000061    -0.11000
C850        C  0.63199776  0.39771718  0.04098882     0.03600
C851        C  0.59925482  0.41811799  0.04030730    -0.10400
H852        H  0.58524329  0.42453589  0.17897010     0.09200
H853        H  0.67544413  0.37654022  0.00000051     0.06800
H854        H  0.58524151  0.42453512  0.07103340     0.06600
O855        O  0.52653956  0.03710145  0.03614462    -0.71300
O856        O  0.96334573  0.45441238  0.03614488    -0.71500
O857        O  0.53629603  0.46416599  0.03614502    -0.71300
O858        O  0.95358956  0.02734768  0.03614462    -0.71300
O859        O  0.95358892  0.02734440  0.21385748    -0.71300
O860        O  0.53629792  0.46416585  0.21385868    -0.71300
O861        O  0.96334821  0.45440914  0.21385846    -0.71300
O862        O  0.52653863  0.03710100  0.21385776    -0.71400
V863        V  0.99494273  0.49575683  0.03473180     1.35200
V864        V  0.99494340  0.49575508  0.21527114     1.35200
C865        C  0.53729146  0.05133529  0.25000171     0.78000
C866        C  0.95259532  0.44017540  0.25000259     0.78000
C867        C  0.55053131  0.45341285  0.00000090     0.77900
C868        C  0.93935465  0.03810058  0.00000043     0.77900
O869        O  0.70358882  0.21416625  0.16114588    -0.71300
O870        O  0.78629609  0.27734634  0.16114582    -0.71500
O871        O  0.71334616  0.28710155  0.16114524    -0.71300
O872        O  0.77653905  0.20441089  0.16114628    -0.71300
O873        O  0.77653969  0.20441069  0.08885798    -0.71300
O874        O  0.71334625  0.28710069  0.08885696    -0.71300
O875        O  0.78629635  0.27734598  0.08885760    -0.71300
O876        O  0.70358953  0.21416558  0.08885766    -0.71400
V877        V  0.74494255  0.24575621  0.15973284     1.35200
V878        V  0.74494298  0.24575569  0.09027058     1.35200
C879        C  0.68935394  0.20341310  0.12500165     0.78000
C880        C  0.80053115  0.28809943  0.12500169     0.78000
C881        C  0.70259306  0.30133483  0.12500093     0.77900
C882        C  0.78729260  0.19017717  0.12500219     0.77900
C883        C  0.56108759  0.08431332  0.25000124     0.03700
C884        C  0.57258254  0.10005702  0.04030707    -0.12500
C885        C  0.59297580  0.13280006  0.04098864     0.01200
C886        C  0.60109335  0.14978313  0.25000078    -0.11000
C887        C  0.59297429  0.13280057  0.20901276     0.03600
C888        C  0.57258107  0.10005747  0.20969452    -0.10400
H889        H  0.56616864  0.08604540  0.07103200     0.09200
H890        H  0.61413819  0.17624480  0.25000068     0.06800
H891        H  0.56616729  0.08604539  0.17896921     0.06600
C892        C  0.65637444  0.17961451  0.12500126     0.03100
C893        C  0.64063056  0.16811774  0.16530759    -0.12500
C894        C  0.60788817  0.14771652  0.16598885     0.01200
C895        C  0.59090577  0.13959244  0.12500057    -0.11000
C896        C  0.60788884  0.14771652  0.08401265     0.03600
C897        C  0.64063116  0.16811793  0.08469438    -0.10400
H898        H  0.65464322  0.17453477  0.19603296     0.09200
H899        H  0.56444353  0.12654021  0.12500038     0.06800
H900        H  0.65464401  0.17453501  0.05396966     0.06600
C901        C  0.83351609  0.31189192  0.37500166     0.03700
C902        C  0.84926111  0.32338717  0.41530813    -0.12500
C903        C  0.88200376  0.34378826  0.41598906     0.01200
C904        C  0.89898546  0.35191274  0.37500068    -0.11000
C905        C  0.88200170  0.34379034  0.33401297     0.03600
C906        C  0.84925909  0.32338925  0.33469492    -0.10400
H907        H  0.83524904  0.31696955  0.44603369     0.09200
H908        H  0.92544885  0.36496518  0.37500018     0.06800
H909        H  0.83524541  0.31697312  0.30396978     0.06600
C910        C  0.92879933  0.40719737  0.25000247     0.03700
C911        C  0.91730738  0.39145137  0.29030864    -0.12500
C912        C  0.89691408  0.35870830  0.29098939     0.01200
C913        C  0.88879371  0.34172780  0.25000070    -0.11000
C914        C  0.89691791  0.35870455  0.45901267     0.03600
C915        C  0.91731055  0.39144806  0.45969420    -0.10400
H916        H  0.92372261  0.40546228  0.32103517     0.09200
H917        H  0.87574863  0.31526536  0.24999987     0.06800
H918        H  0.92372403  0.40546003  0.42896881     0.06600
C919        C  0.81108488  0.15719369  0.37500236     0.03700
C920        C  0.82257672  0.14144771  0.41530871    -0.12500
C921        C  0.84296889  0.10870351  0.41598930     0.01200
C922        C  0.85108815  0.09172182  0.37500077    -0.11000
C923        C  0.84296982  0.10870509  0.33401318     0.03600
C924        C  0.82257778  0.14144917  0.33469541    -0.10400
H925        H  0.81616282  0.15545919  0.44603443     0.09200
H926        H  0.86413291  0.06525950  0.37500009     0.06800
H927        H  0.81616484  0.15546177  0.30397040     0.06600
C928        C  0.90637266  0.06189464  0.25000120     0.03700
C929        C  0.89062559  0.07338560  0.45969380    -0.12500
C930        C  0.85788223  0.09378607  0.45901260     0.01200
C931        C  0.84090207  0.10191462  0.25000090    -0.11000
C932        C  0.85788410  0.09378965  0.29098915     0.03600
C933        C  0.89062742  0.07338932  0.29030787    -0.10400
H934        H  0.90463861  0.06696889  0.42896831     0.09200
H935        H  0.81443917  0.11496722  0.25000065     0.06800
H936        H  0.90463958  0.06697176  0.32103314     0.06600
C937        C  0.67880275  0.33431545  0.37500082     0.03700
C938        C  0.66730943  0.35006000  0.33469432    -0.12500
C939        C  0.64691681  0.38280381  0.33401271     0.01200
C940        C  0.63879811  0.39978688  0.37500076    -0.11000
C941        C  0.64691805  0.38280491  0.41598881     0.03600
C942        C  0.66731047  0.35006099  0.41530752    -0.10400
H943        H  0.67372257  0.33604730  0.30396855     0.09200
H944        H  0.62575347  0.42624802  0.37500069     0.06800
H945        H  0.67372401  0.33604951  0.44603217     0.06600
C946        C  0.58351403  0.42961611  0.25000245     0.03700
C947        C  0.59926149  0.41812209  0.45969431    -0.12500
C948        C  0.63200482  0.39772174  0.45901271     0.01200
C949        C  0.64898433  0.38959545  0.25000058    -0.11000
C950        C  0.63200227  0.39771976  0.29098920     0.03600
C951        C  0.59925900  0.41812036  0.29030864    -0.10400
H952        H  0.58524841  0.42453833  0.42896956     0.09200
H953        H  0.67544708  0.37654275  0.24999976     0.06800
H954        H  0.58524646  0.42453735  0.32103420     0.06600
O955        O  0.52653812  0.03710202  0.28614597    -0.71300
O956        O  0.96334830  0.45440940  0.28614669    -0.71500
O957        O  0.53629814  0.46416678  0.28614694    -0.71300
O958        O  0.95358838  0.02734473  0.28614575    -0.71300
O959        O  0.95358770  0.02734136  0.46385624    -0.71300
O960        O  0.53629996  0.46416658  0.46385682    -0.71300
O961        O  0.96335058  0.45440631  0.46385666    -0.71300
O962        O  0.52653736  0.03710126  0.46385638    -0.71400
V963        V  0.99494319  0.49575573  0.28473339     1.35200
V964        V  0.99494382  0.49575390  0.46526950     1.35200
C965        C  0.53728993  0.05133558  0.50000046     0.78000
C966        C  0.95259827  0.44017205  0.50000080     0.78000
C967        C  0.55053361  0.45341380  0.25000284     0.77900
C968        C  0.93935316  0.03809716  0.25000148     0.77900
O969        O  0.70358808  0.21416754  0.41114585    -0.71300
O970        O  0.78629963  0.27734244  0.41114596    -0.71500
O971        O  0.71334974  0.28710218  0.41114548    -0.71300
O972        O  0.77653782  0.20440754  0.41114655    -0.71300
O973        O  0.77653871  0.20440747  0.33885829    -0.71300
O974        O  0.71335013  0.28710155  0.33885723    -0.71300
O975        O  0.78629981  0.27734218  0.33885775    -0.71300
O976        O  0.70358901  0.21416658  0.33885764    -0.71400
V977        V  0.74494386  0.24575494  0.40973299     1.35200
V978        V  0.74494439  0.24575444  0.34027075     1.35200
C979        C  0.68935287  0.20341468  0.37500165     0.78000
C980        C  0.80053549  0.28809454  0.37500184     0.78000
C981        C  0.70259741  0.30133616  0.37500120     0.77900
C982        C  0.78729063  0.19017315  0.37500250     0.77900
C983        C  0.56108557  0.08431412  0.50000044     0.03700
C984        C  0.57258089  0.10005818  0.29030771    -0.12500
C985        C  0.59297397  0.13280138  0.29098896     0.01200
C986        C  0.60109186  0.14978379  0.50000061    -0.11000
C987        C  0.59297260  0.13280166  0.45901254     0.03600
C988        C  0.57257902  0.10005871  0.45969388    -0.10400
H989        H  0.56616716  0.08604665  0.32103287     0.09200
H990        H  0.61413638  0.17624524  0.50000069     0.06800
H991        H  0.56616506  0.08604698  0.42896845     0.06600
C992        C  0.65637281  0.17961653  0.37500140     0.03100
C993        C  0.64062882  0.16811979  0.41530782    -0.12500
C994        C  0.60788647  0.14771825  0.41598895     0.01200
C995        C  0.59090404  0.13959432  0.37500077    -0.11000
C996        C  0.60788712  0.14771817  0.33401287     0.03600
C997        C  0.64062952  0.16811957  0.33469461    -0.10400
H998        H  0.65464141  0.17453678  0.44603304     0.09200
H999        H  0.56444168  0.12654212  0.37500059     0.06800
H1000       H  0.65464247  0.17453643  0.30396967     0.06600
C1001       C  0.83351609  0.31189200  0.62499973     0.03700
C1002       C  0.84925909  0.32338927  0.66530647    -0.12500
C1003       C  0.88200172  0.34379035  0.66598844     0.01200
C1004       C  0.89898548  0.35191275  0.62500071    -0.11000
C1005       C  0.88200381  0.34378833  0.58401234     0.03600
C1006       C  0.84926112  0.32338728  0.58469326    -0.10400
H1007       H  0.83524542  0.31697312  0.69603169     0.09200
H1008       H  0.92544893  0.36496519  0.62500118     0.06800
H1009       H  0.83524907  0.31696976  0.55396776     0.06600
C1010       C  0.92880370  0.40719284  0.50000083     0.03700
C1011       C  0.91731070  0.39144804  0.54030741    -0.12500
C1012       C  0.89691798  0.35870457  0.54098876     0.01200
C1013       C  0.88879945  0.34172216  0.50000065    -0.11000
C1014       C  0.89691403  0.35870829  0.70901209     0.03600
C1015       C  0.91730738  0.39145136  0.70969299    -0.10400
H1016       H  0.92372432  0.40545998  0.57103292     0.09200
H1017       H  0.87575517  0.31525996  0.50000055     0.06800
H1018       H  0.92372249  0.40546211  0.67896685     0.06600
C1019       C  0.81108482  0.15719361  0.62499965     0.03700
C1020       C  0.82257782  0.14144929  0.66530641    -0.12500
C1021       C  0.84296998  0.10870522  0.66598829     0.01200
C1022       C  0.85108814  0.09172180  0.62500050    -0.11000
C1023       C  0.84296886  0.10870339  0.58401220     0.03600
C1024       C  0.82257667  0.14144756  0.58469308    -0.10400
H1025       H  0.81616482  0.15546202  0.69603165     0.09200
H1026       H  0.86413290  0.06525940  0.62500091     0.06800
H1027       H  0.81616287  0.15545882  0.55396787     0.06600
C1028       C  0.90637013  0.06188999  0.50000037     0.03700
C1029       C  0.89062758  0.07338925  0.70969306    -0.12500
C1030       C  0.85788428  0.09378971  0.70901205     0.01200
C1031       C  0.84089906  0.10190957  0.50000071    -0.11000
C1032       C  0.85788217  0.09378604  0.54098862     0.03600
C1033       C  0.89062556  0.07338565  0.54030717    -0.10400
H1034       H  0.90463990  0.06697162  0.67896757     0.09200
H1035       H  0.81443644  0.11496171  0.50000082     0.06800
H1036       H  0.90463837  0.06696911  0.57103217     0.06600
C1037       C  0.67880276  0.33431539  0.62499987     0.03700
C1038       C  0.66731055  0.35006089  0.58469339    -0.12500
C1039       C  0.64691804  0.38280476  0.58401234     0.01200
C1040       C  0.63879814  0.39978679  0.62500060    -0.11000
C1041       C  0.64691688  0.38280390  0.66598842     0.03600
C1042       C  0.66730939  0.35006006  0.66530655    -0.10400
H1043       H  0.67372432  0.33604915  0.55396812     0.09200
H1044       H  0.62575336  0.42624806  0.62500093     0.06800
H1045       H  0.67372238  0.33604752  0.69603198     0.06600
C1046       C  0.58351713  0.42961808  0.50000099     0.03700
C1047       C  0.59925905  0.41812043  0.70969294    -0.12500
C1048       C  0.63200234  0.39771985  0.70901215     0.01200
C1049       C  0.64898806  0.38959760  0.50000063    -0.11000
C1050       C  0.63200468  0.39772159  0.54098874     0.03600
C1051       C  0.59926138  0.41812204  0.54030746    -0.10400
H1052       H  0.58524674  0.42453727  0.67896793     0.09200
H1053       H  0.67544941  0.37654579  0.50000052     0.06800
H1054       H  0.58524815  0.42453840  0.57103252     0.06600
O1055       O  0.52653697  0.03710174  0.53614458    -0.71300
O1056       O  0.96335036  0.45440674  0.53614488    -0.71500
O1057       O  0.53629973  0.46416696  0.53614506    -0.71300
O1058       O  0.95358747  0.02734170  0.53614448    -0.71300
O1059       O  0.95358861  0.02734430  0.71385515    -0.71300
O1060       O  0.53629828  0.46416630  0.71385482    -0.71300
O1061       O  0.96334862  0.45440887  0.71385499    -0.71300
O1062       O  0.52653850  0.03710154  0.71385511    -0.71400
V1063       V  0.99494360  0.49575432  0.53473173     1.35200
V1064       V  0.99494340  0.49575528  0.71526796     1.35200
C1065       C  0.53729156  0.05133526  0.74999932     0.78000
C1066       C  0.95259535  0.44017536  0.74999914     0.78000
C1067       C  0.55053589  0.45341480  0.50000098     0.77900
C1068       C  0.93935155  0.03809351  0.50000034     0.77900
O1069       O  0.70358868  0.21416696  0.66114365    -0.71300
O1070       O  0.78629950  0.27734264  0.66114362    -0.71500
O1071       O  0.71334992  0.28710190  0.66114363    -0.71300
O1072       O  0.77653841  0.20440776  0.66114360    -0.71300
O1073       O  0.77653805  0.20440707  0.58885533    -0.71300
O1074       O  0.71335014  0.28710182  0.58885538    -0.71300
O1075       O  0.78629999  0.27734198  0.58885542    -0.71300
O1076       O  0.70358846  0.21416702  0.58885545    -0.71400
V1077       V  0.74494412  0.24575480  0.65973061     1.35200
V1078       V  0.74494419  0.24575450  0.59026837     1.35200
C1079       C  0.68935289  0.20341461  0.62499958     0.78000
C1080       C  0.80053548  0.28809460  0.62499953     0.78000
C1081       C  0.70259750  0.30133616  0.62499956     0.77900
C1082       C  0.78729057  0.19017305  0.62499948     0.77900
C1083       C  0.56108765  0.08431332  0.74999978     0.03700
C1084       C  0.57257906  0.10005871  0.54030707    -0.12500
C1085       C  0.59297261  0.13280168  0.54098854     0.01200
C1086       C  0.60109326  0.14978308  0.75000059    -0.11000
C1087       C  0.59297391  0.13280140  0.70901224     0.03600
C1088       C  0.57258077  0.10005821  0.70969334    -0.10400
H1089       H  0.56616523  0.08604705  0.57103220     0.09200
H1090       H  0.61413834  0.17624507  0.75000088     0.06800
H1091       H  0.56616691  0.08604674  0.67896812     0.06600
C1092       C  0.65637280  0.17961647  0.62499976     0.03100
C1093       C  0.64062946  0.16811951  0.66530644    -0.12500
C1094       C  0.60788707  0.14771813  0.66598832     0.01200
C1095       C  0.59090401  0.13959427  0.62500041    -0.11000
C1096       C  0.60788642  0.14771827  0.58401220     0.03600
C1097       C  0.64062877  0.16811987  0.58469322    -0.10400
H1098       H  0.65464254  0.17453644  0.69603164     0.09200
H1099       H  0.56444166  0.12654205  0.62500065     0.06800
H1100       H  0.65464117  0.17453688  0.55396831     0.06600
C1101       C  0.83351017  0.31189875  0.87499966     0.03700
C1102       C  0.84925284  0.32339635  0.91530667    -0.12500
C1103       C  0.88199501  0.34379810  0.91598833     0.01200
C1104       C  0.89897868  0.35192161  0.87500054    -0.11000
C1105       C  0.88199691  0.34379615  0.83401213     0.03600
C1106       C  0.84925479  0.32339449  0.83469337    -0.10400
H1107       H  0.83524011  0.31697990  0.94603027     0.09200
H1108       H  0.92544002  0.36497370  0.87500090     0.06800
H1109       H  0.83524264  0.31697619  0.80396725     0.06600
C1110       C  0.92879935  0.40719733  0.74999928     0.03700
C1111       C  0.91730462  0.39145447  0.79030629    -0.12500
C1112       C  0.89691141  0.35871131  0.79098822     0.01200
C1113       C  0.88879373  0.34172789  0.75000063    -0.11000
C1114       C  0.89690769  0.35871498  0.95901257     0.03600
C1115       C  0.91730140  0.39145770  0.95969403    -0.10400
H1116       H  0.92371733  0.40546698  0.82103039     0.09200
H1117       H  0.87574848  0.31526505  0.75000124     0.06800
H1118       H  0.92371570  0.40546875  0.92896972     0.06600
C1119       C  0.81108856  0.15719914  0.87499985     0.03700
C1120       C  0.82258163  0.14145502  0.91530669    -0.12500
C1121       C  0.84297425  0.10871133  0.91598848     0.01200
C1122       C  0.85109304  0.09172812  0.87500058    -0.11000
C1123       C  0.84297328  0.10870958  0.83401217     0.03600
C1124       C  0.82258082  0.14145347  0.83469328    -0.10400
H1125       H  0.81616805  0.15546730  0.94603168     0.09200
H1126       H  0.86413788  0.06526627  0.87500098     0.06800
H1127       H  0.81616653  0.15546462  0.80396774     0.06600
C1128       C  0.90637262  0.06189453  0.74999959     0.03700
C1129       C  0.89063102  0.07339503  0.95969386    -0.12500
C1130       C  0.85788789  0.09379558  0.95901246     0.01200
C1131       C  0.84090204  0.10191452  0.75000045    -0.11000
C1132       C  0.85788585  0.09379188  0.79098827     0.03600
C1133       C  0.89062909  0.07339136  0.79030644    -0.10400
H1134       H  0.90464391  0.06697784  0.92896846     0.09200
H1135       H  0.81443922  0.11496700  0.75000085     0.06800
H1136       H  0.90464252  0.06697545  0.82103123     0.06600
C1137       C  0.67879724  0.33431299  0.87500000     0.03700
C1138       C  0.66730483  0.35005807  0.83469354    -0.12500
C1139       C  0.64691257  0.38280205  0.83401229     0.01200
C1140       C  0.63879283  0.39978394  0.87500059    -0.11000
C1141       C  0.64691148  0.38280133  0.91598852     0.03600
C1142       C  0.66730382  0.35005748  0.91530657    -0.10400
H1143       H  0.67371875  0.33604621  0.80396810     0.09200
H1144       H  0.62574741  0.42624665  0.87500088     0.06800
H1145       H  0.67371704  0.33604488  0.94603229     0.06600
C1146       C  0.58351402  0.42961615  0.74999940     0.03700
C1147       C  0.59925489  0.41811799  0.95969427    -0.12500
C1148       C  0.63199791  0.39771732  0.95901257     0.01200
C1149       C  0.64898425  0.38959552  0.75000057    -0.11000
C1150       C  0.63200030  0.39771902  0.79098832     0.03600
C1151       C  0.59925724  0.41811956  0.79030599    -0.10400
H1152       H  0.58524183  0.42453489  0.92896876     0.09200
H1153       H  0.67544721  0.37654272  0.75000116     0.06800
H1154       H  0.58524299  0.42453595  0.82103193     0.06600
O1155       O  0.52653844  0.03710142  0.78614332    -0.71300
O1156       O  0.96334789  0.45440960  0.78614321    -0.71500
O1157       O  0.53629769  0.46416631  0.78614308    -0.71300
O1158       O  0.95358869  0.02734482  0.78614343    -0.71300
O1159       O  0.95358977  0.02734725  0.96385631    -0.71300
O1160       O  0.53629622  0.46416557  0.96385673    -0.71300
O1161       O  0.96334603  0.45441186  0.96385662    -0.71300
O1162       O  0.52653986  0.03710093  0.96385638    -0.71400
V1163       V  0.99494315  0.49575553  0.78473021     1.35200
V1164       V  0.99494296  0.49575637  0.96526951     1.35200
C1165       C  0.53729306  0.05133469  0.00000045     0.78000
C1166       C  0.95259224  0.44017888  0.00000078     0.78000
C1167       C  0.55053356  0.45341379  0.74999897     0.77900
C1168       C  0.93935313  0.03809709  0.74999934     0.77900
O1169       O  0.70358912  0.21416608  0.91114368    -0.71300
O1170       O  0.78629600  0.27734640  0.91114370    -0.71500
O1171       O  0.71334598  0.28710109  0.91114382    -0.71300
O1172       O  0.77653941  0.20441107  0.91114387    -0.71300
O1173       O  0.77653931  0.20441052  0.83885558    -0.71300
O1174       O  0.71334638  0.28710108  0.83885554    -0.71300
O1175       O  0.78629641  0.27734584  0.83885547    -0.71300
O1176       O  0.70358910  0.21416581  0.83885545    -0.71400
V1177       V  0.74494265  0.24575609  0.90973076     1.35200
V1178       V  0.74494281  0.24575578  0.84026849     1.35200
C1179       C  0.68935390  0.20341311  0.87499964     0.78000
C1180       C  0.80053112  0.28809940  0.87499963     0.78000
C1181       C  0.70259304  0.30133479  0.87499974     0.77900
C1182       C  0.78729263  0.19017720  0.87499975     0.77900
C1183       C  0.56108933  0.08431248  0.00000043     0.03700
C1184       C  0.57258105  0.10005750  0.79030664    -0.12500
C1185       C  0.59297418  0.13280068  0.79098851     0.01200
C1186       C  0.60109529  0.14978212  0.00000067    -0.11000
C1187       C  0.59297577  0.13280008  0.95901255     0.03600
C1188       C  0.57258257  0.10005697  0.95969387    -0.10400
H1189       H  0.56616737  0.08604556  0.82103160     0.09200
H1190       H  0.61414004  0.17624365  0.00000078     0.06800
H1191       H  0.56616866  0.08604530  0.92896877     0.06600
C1192       C  0.65637447  0.17961445  0.87500003     0.03100
C1193       C  0.64063112  0.16811797  0.91530684    -0.12500
C1194       C  0.60788878  0.14771662  0.91598865     0.01200
C1195       C  0.59090574  0.13959257  0.87500077    -0.11000
C1196       C  0.60788805  0.14771664  0.83401247     0.03600
C1197       C  0.64063053  0.16811777  0.83469366    -0.10400
H1198       H  0.65464406  0.17453511  0.94603176     0.09200
H1199       H  0.56444333  0.12654020  0.87500105     0.06800
H1200       H  0.65464313  0.17453480  0.80396833     0.06600
C1201       C  0.83351019  0.81189874  0.12500170     0.03700
C1202       C  0.84925483  0.82339445  0.16530800    -0.12500
C1203       C  0.88199694  0.84379610  0.16598926     0.01200
C1204       C  0.89897868  0.85192159  0.12500081    -0.11000
C1205       C  0.88199498  0.84379817  0.08401306     0.03600
C1206       C  0.84925278  0.82339644  0.08469471    -0.10400
H1207       H  0.83524268  0.81697612  0.19603420     0.09200
H1208       H  0.92544014  0.86497370  0.12500039     0.06800
H1209       H  0.83524001  0.81698007  0.05397117     0.06600
C1210       C  0.92879495  0.90720195  0.00000086     0.03700
C1211       C  0.91730139  0.89145779  0.04030760    -0.12500
C1212       C  0.89690772  0.85871502  0.04098891     0.01200
C1213       C  0.88878771  0.84173275  0.00000067    -0.11000
C1214       C  0.89691148  0.85871125  0.20901323     0.03600
C1215       C  0.91730467  0.89145437  0.20969542    -0.10400
H1216       H  0.92371567  0.90546900  0.07103220     0.09200
H1217       H  0.87574376  0.81527320  0.00000057     0.06800
H1218       H  0.92371740  0.90546694  0.17897125     0.06600
C1219       C  0.81108855  0.65719911  0.12500207     0.03700
C1220       C  0.82258076  0.64145355  0.16530846    -0.12500
C1221       C  0.84297337  0.60870972  0.16598927     0.01200
C1222       C  0.85109306  0.59172808  0.12500066    -0.11000
C1223       C  0.84297421  0.60871121  0.08401296     0.03600
C1224       C  0.82258172  0.64145492  0.08469506    -0.10400
H1225       H  0.81616625  0.65546484  0.19603430     0.09200
H1226       H  0.86413780  0.56526642  0.12500001     0.06800
H1227       H  0.81616832  0.65546706  0.05397037     0.06600
C1228       C  0.90637519  0.56189926  0.00000038     0.03700
C1229       C  0.89062916  0.57339131  0.20969449    -0.12500
C1230       C  0.85788598  0.59379200  0.20901291     0.01200
C1231       C  0.84090485  0.60191966  0.00000069    -0.11000
C1232       C  0.85788784  0.59379555  0.04098872     0.03600
C1233       C  0.89063105  0.57339514  0.04030716    -0.10400
H1234       H  0.90464270  0.56697515  0.17896943     0.09200
H1235       H  0.81444235  0.61497196  0.00000080     0.06800
H1236       H  0.90464360  0.56697814  0.07103187     0.06600
C1237       C  0.67879725  0.83431299  0.12500062     0.03700
C1238       C  0.66730391  0.85005738  0.08469420    -0.12500
C1239       C  0.64691141  0.88280118  0.08401261     0.01200
C1240       C  0.63879280  0.89978391  0.12500074    -0.11000
C1241       C  0.64691260  0.88280213  0.16598883     0.03600
C1242       C  0.66730474  0.85005818  0.16530716    -0.10400
H1243       H  0.67371730  0.83604466  0.05396823     0.09200
H1244       H  0.62574735  0.92624661  0.12500074     0.06800
H1245       H  0.67371858  0.83604627  0.19603265     0.06600
C1246       C  0.58351098  0.92961433  0.00000091     0.03700
C1247       C  0.59925737  0.91811955  0.20969564    -0.12500
C1248       C  0.63200042  0.89771908  0.20901305     0.01200
C1249       C  0.64898058  0.88959324  0.00000061    -0.11000
C1250       C  0.63199778  0.89771718  0.04098882     0.03600
C1251       C  0.59925484  0.91811798  0.04030730    -0.10400
H1252       H  0.58524333  0.92453590  0.17897010     0.09200
H1253       H  0.67544414  0.87654022  0.00000051     0.06800
H1254       H  0.58524153  0.92453512  0.07103340     0.06600
O1255       O  0.52653956  0.53710143  0.03614462    -0.71300
O1256       O  0.96334574  0.95441241  0.03614488    -0.71500
O1257       O  0.53629604  0.96416599  0.03614502    -0.71300
O1258       O  0.95358956  0.52734769  0.03614462    -0.71300
O1259       O  0.95358889  0.52734440  0.21385748    -0.71300
O1260       O  0.53629793  0.96416586  0.21385867    -0.71300
O1261       O  0.96334823  0.95440913  0.21385846    -0.71300
O1262       O  0.52653863  0.53710099  0.21385776    -0.71400
V1263       V  0.99494274  0.99575683  0.03473180     1.35200
V1264       V  0.99494341  0.99575508  0.21527114     1.35200
C1265       C  0.53729145  0.55133527  0.25000171     0.78000
C1266       C  0.95259534  0.94017539  0.25000259     0.78000
C1267       C  0.55053132  0.95341284  0.00000090     0.77900
C1268       C  0.93935468  0.53810062  0.00000043     0.77900
O1269       O  0.70358880  0.71416625  0.16114589    -0.71300
O1270       O  0.78629610  0.77734630  0.16114583    -0.71500
O1271       O  0.71334618  0.78710154  0.16114524    -0.71300
O1272       O  0.77653906  0.70441088  0.16114628    -0.71300
O1273       O  0.77653971  0.70441069  0.08885798    -0.71300
O1274       O  0.71334625  0.78710067  0.08885696    -0.71300
O1275       O  0.78629628  0.77734602  0.08885760    -0.71300
O1276       O  0.70358952  0.71416556  0.08885766    -0.71400
V1277       V  0.74494255  0.74575619  0.15973285     1.35200
V1278       V  0.74494296  0.74575568  0.09027058     1.35200
C1279       C  0.68935390  0.70341311  0.12500166     0.78000
C1280       C  0.80053112  0.78809942  0.12500169     0.78000
C1281       C  0.70259307  0.80133482  0.12500093     0.77900
C1282       C  0.78729262  0.69017716  0.12500219     0.77900
C1283       C  0.56108753  0.58431333  0.25000124     0.03700
C1284       C  0.57258252  0.60005703  0.04030706    -0.12500
C1285       C  0.59297582  0.63280004  0.04098863     0.01200
C1286       C  0.60109335  0.64978308  0.25000079    -0.11000
C1287       C  0.59297423  0.63280057  0.20901276     0.03600
C1288       C  0.57258094  0.60005750  0.20969450    -0.10400
H1289       H  0.56616866  0.58604536  0.07103200     0.09200
H1290       H  0.61413824  0.67624475  0.25000068     0.06800
H1291       H  0.56616711  0.58604548  0.17896927     0.06600
C1292       C  0.65637441  0.67961450  0.12500127     0.03100
C1293       C  0.64063052  0.66811773  0.16530759    -0.12500
C1294       C  0.60788809  0.64771653  0.16598885     0.01200
C1295       C  0.59090578  0.63959247  0.12500056    -0.11000
C1296       C  0.60788884  0.64771649  0.08401264     0.03600
C1297       C  0.64063116  0.66811792  0.08469438    -0.10400
H1298       H  0.65464318  0.67453472  0.19603294     0.09200
H1299       H  0.56444333  0.62654011  0.12500034     0.06800
H1300       H  0.65464401  0.67453500  0.05396967     0.06600
C1301       C  0.83351611  0.81189191  0.37500165     0.03700
C1302       C  0.84926113  0.82338716  0.41530813    -0.12500
C1303       C  0.88200377  0.84378825  0.41598906     0.01200
C1304       C  0.89898551  0.85191276  0.37500067    -0.11000
C1305       C  0.88200172  0.84379033  0.33401297     0.03600
C1306       C  0.84925911  0.82338924  0.33469492    -0.10400
H1307       H  0.83524906  0.81696954  0.44603369     0.09200
H1308       H  0.92544871  0.86496512  0.37500018     0.06800
H1309       H  0.83524543  0.81697311  0.30396978     0.06600
C1310       C  0.92879935  0.90719736  0.25000247     0.03700
C1311       C  0.91730738  0.89145138  0.29030864    -0.12500
C1312       C  0.89691410  0.85870829  0.29098939     0.01200
C1313       C  0.88879373  0.84172779  0.25000070    -0.11000
C1314       C  0.89691793  0.85870455  0.45901267     0.03600
C1315       C  0.91731057  0.89144805  0.45969420    -0.10400
H1316       H  0.92372256  0.90546230  0.32103511     0.09200
H1317       H  0.87574866  0.81526535  0.24999987     0.06800
H1318       H  0.92372404  0.90546003  0.42896882     0.06600
C1319       C  0.81108488  0.65719369  0.37500235     0.03700
C1320       C  0.82257674  0.64144771  0.41530870    -0.12500
C1321       C  0.84296891  0.60870350  0.41598929     0.01200
C1322       C  0.85108817  0.59172182  0.37500077    -0.11000
C1323       C  0.84296983  0.60870509  0.33401318     0.03600
C1324       C  0.82257779  0.64144917  0.33469541    -0.10400
H1325       H  0.81616283  0.65545919  0.44603443     0.09200
H1326       H  0.86413293  0.56525950  0.37500010     0.06800
H1327       H  0.81616485  0.65546177  0.30397039     0.06600
C1328       C  0.90637264  0.56189462  0.25000120     0.03700
C1329       C  0.89062559  0.57338561  0.45969381    -0.12500
C1330       C  0.85788223  0.59378607  0.45901259     0.01200
C1331       C  0.84090208  0.60191462  0.25000090    -0.11000
C1332       C  0.85788411  0.59378965  0.29098916     0.03600
C1333       C  0.89062743  0.57338932  0.29030787    -0.10400
H1334       H  0.90463863  0.56696891  0.42896833     0.09200
H1335       H  0.81443918  0.61496722  0.25000065     0.06800
H1336       H  0.90463959  0.56697175  0.32103314     0.06600
C1337       C  0.67880266  0.83431542  0.37500081     0.03700
C1338       C  0.66730938  0.85005998  0.33469429    -0.12500
C1339       C  0.64691680  0.88280382  0.33401270     0.01200
C1340       C  0.63879812  0.89978688  0.37500075    -0.11000
C1341       C  0.64691806  0.88280492  0.41598881     0.03600
C1342       C  0.66731044  0.85006098  0.41530751    -0.10400
H1343       H  0.67372251  0.83604731  0.30396859     0.09200
H1344       H  0.62575346  0.92624804  0.37500068     0.06800
H1345       H  0.67372402  0.83604953  0.44603216     0.06600
C1346       C  0.58351401  0.92961609  0.25000244     0.03700
C1347       C  0.59926151  0.91812209  0.45969431    -0.12500
C1348       C  0.63200483  0.89772174  0.45901272     0.01200
C1349       C  0.64898432  0.88959547  0.25000060    -0.11000
C1350       C  0.63200224  0.89771976  0.29098920     0.03600
C1351       C  0.59925892  0.91812031  0.29030866    -0.10400
H1352       H  0.58524842  0.92453833  0.42896956     0.09200
H1353       H  0.67544708  0.87654276  0.24999979     0.06800
H1354       H  0.58524642  0.92453724  0.32103409     0.06600
O1355       O  0.52653812  0.53710200  0.28614597    -0.71300
O1356       O  0.96334832  0.95440939  0.28614669    -0.71500
O1357       O  0.53629815  0.96416678  0.28614693    -0.71300
O1358       O  0.95358836  0.52734472  0.28614575    -0.71300
O1359       O  0.95358762  0.52734132  0.46385624    -0.71300
O1360       O  0.53629997  0.96416659  0.46385683    -0.71300
O1361       O  0.96335060  0.95440631  0.46385666    -0.71300
O1362       O  0.52653738  0.53710126  0.46385637    -0.71400
V1363       V  0.99494320  0.99575573  0.28473339     1.35200
V1364       V  0.99494386  0.99575390  0.46526950     1.35200
C1365       C  0.53728996  0.55133559  0.50000045     0.78000
C1366       C  0.95259829  0.94017204  0.50000079     0.78000
C1367       C  0.55053361  0.95341380  0.25000283     0.77900
C1368       C  0.93935313  0.53809714  0.25000148     0.77900
O1369       O  0.70358809  0.71416756  0.41114585    -0.71300
O1370       O  0.78629966  0.77734243  0.41114596    -0.71500
O1371       O  0.71334979  0.78710227  0.41114548    -0.71300
O1372       O  0.77653783  0.70440756  0.41114655    -0.71300
O1373       O  0.77653861  0.70440741  0.33885829    -0.71300
O1374       O  0.71335012  0.78710157  0.33885723    -0.71300
O1375       O  0.78629983  0.77734215  0.33885775    -0.71300
O1376       O  0.70358900  0.71416659  0.33885765    -0.71400
V1377       V  0.74494387  0.74575497  0.40973299     1.35200
V1378       V  0.74494438  0.74575444  0.34027075     1.35200
C1379       C  0.68935288  0.70341468  0.37500165     0.78000
C1380       C  0.80053551  0.78809453  0.37500184     0.78000
C1381       C  0.70259740  0.80133619  0.37500120     0.77900
C1382       C  0.78729060  0.69017313  0.37500250     0.77900
C1383       C  0.56108560  0.58431412  0.50000043     0.03700
C1384       C  0.57258078  0.60005821  0.29030773    -0.12500
C1385       C  0.59297394  0.63280137  0.29098897     0.01200
C1386       C  0.60109188  0.64978379  0.50000061    -0.11000
C1387       C  0.59297262  0.63280166  0.45901253     0.03600
C1388       C  0.57257904  0.60005871  0.45969388    -0.10400
H1389       H  0.56616701  0.58604674  0.32103281     0.09200
H1390       H  0.61413640  0.67624523  0.50000069     0.06800
H1391       H  0.56616508  0.58604697  0.42896845     0.06600
C1392       C  0.65637282  0.67961652  0.37500140     0.03100
C1393       C  0.64062884  0.66811978  0.41530782    -0.12500
C1394       C  0.60788649  0.64771825  0.41598895     0.01200
C1395       C  0.59090406  0.63959431  0.37500077    -0.11000
C1396       C  0.60788713  0.64771815  0.33401287     0.03600
C1397       C  0.64062953  0.66811956  0.33469461    -0.10400
H1398       H  0.65464143  0.67453677  0.44603304     0.09200
H1399       H  0.56444170  0.62654212  0.37500060     0.06800
H1400       H  0.65464248  0.67453642  0.30396966     0.06600
C1401       C  0.83351608  0.81189200  0.62499973     0.03700
C1402       C  0.84925910  0.82338926  0.66530647    -0.12500
C1403       C  0.88200173  0.84379034  0.66598843     0.01200
C1404       C  0.89898550  0.85191274  0.62500071    -0.11000
C1405       C  0.88200382  0.84378832  0.58401235     0.03600
C1406       C  0.84926113  0.82338727  0.58469326    -0.10400
H1407       H  0.83524543  0.81697312  0.69603169     0.09200
H1408       H  0.92544894  0.86496519  0.62500118     0.06800
H1409       H  0.83524908  0.81696976  0.55396776     0.06600
C1410       C  0.92880372  0.90719283  0.50000083     0.03700
C1411       C  0.91731072  0.89144803  0.54030741    -0.12500
C1412       C  0.89691799  0.85870456  0.54098877     0.01200
C1413       C  0.88879947  0.84172215  0.50000065    -0.11000
C1414       C  0.89691405  0.85870828  0.70901209     0.03600
C1415       C  0.91730738  0.89145138  0.70969297    -0.10400
H1416       H  0.92372434  0.90545997  0.57103292     0.09200
H1417       H  0.87575519  0.81525995  0.50000055     0.06800
H1418       H  0.92372245  0.90546213  0.67896688     0.06600
C1419       C  0.81108484  0.65719361  0.62499965     0.03700
C1420       C  0.82257784  0.64144929  0.66530641    -0.12500
C1421       C  0.84296998  0.60870522  0.66598829     0.01200
C1422       C  0.85108815  0.59172180  0.62500050    -0.11000
C1423       C  0.84296886  0.60870339  0.58401220     0.03600
C1424       C  0.82257668  0.64144756  0.58469308    -0.10400
H1425       H  0.81616483  0.65546202  0.69603165     0.09200
H1426       H  0.86413288  0.56525939  0.62500090     0.06800
H1427       H  0.81616287  0.65545881  0.55396786     0.06600
C1428       C  0.90637010  0.56188998  0.50000039     0.03700
C1429       C  0.89062749  0.57338921  0.70969310    -0.12500
C1430       C  0.85788425  0.59378970  0.70901206     0.01200
C1431       C  0.84089908  0.60190955  0.50000069    -0.11000
C1432       C  0.85788213  0.59378603  0.54098862     0.03600
C1433       C  0.89062550  0.57338563  0.54030716    -0.10400
H1434       H  0.90463985  0.56697151  0.67896746     0.09200
H1435       H  0.81443629  0.61496179  0.50000079     0.06800
H1436       H  0.90463834  0.56696907  0.57103225     0.06600
C1437       C  0.67880276  0.83431540  0.62499986     0.03700
C1438       C  0.66731056  0.85006089  0.58469339    -0.12500
C1439       C  0.64691805  0.88280476  0.58401234     0.01200
C1440       C  0.63879811  0.89978678  0.62500059    -0.11000
C1441       C  0.64691679  0.88280386  0.66598841     0.03600
C1442       C  0.66730936  0.85006005  0.66530655    -0.10400
H1443       H  0.67372434  0.83604915  0.55396813     0.09200
H1444       H  0.62575337  0.92624809  0.62500092     0.06800
H1445       H  0.67372238  0.83604754  0.69603196     0.06600
C1446       C  0.58351714  0.92961808  0.50000100     0.03700
C1447       C  0.59925902  0.91812042  0.70969295    -0.12500
C1448       C  0.63200230  0.89771984  0.70901215     0.01200
C1449       C  0.64898808  0.88959759  0.50000063    -0.11000
C1450       C  0.63200470  0.89772159  0.54098873     0.03600
C1451       C  0.59926140  0.91812204  0.54030746    -0.10400
H1452       H  0.58524671  0.92453729  0.67896793     0.09200
H1453       H  0.67544943  0.87654578  0.50000052     0.06800
H1454       H  0.58524817  0.92453839  0.57103252     0.06600
O1455       O  0.52653704  0.53710174  0.53614458    -0.71300
O1456       O  0.96335038  0.95440673  0.53614488    -0.71500
O1457       O  0.53629966  0.96416694  0.53614507    -0.71300
O1458       O  0.95358746  0.52734173  0.53614449    -0.71300
O1459       O  0.95358851  0.52734423  0.71385514    -0.71300
O1460       O  0.53629828  0.96416629  0.71385482    -0.71300
O1461       O  0.96334858  0.95440896  0.71385499    -0.71300
O1462       O  0.52653838  0.53710157  0.71385511    -0.71400
V1463       V  0.99494361  0.99575431  0.53473173     1.35200
V1464       V  0.99494343  0.99575530  0.71526797     1.35200
C1465       C  0.53729147  0.55133527  0.74999932     0.78000
C1466       C  0.95259536  0.94017539  0.74999913     0.78000
C1467       C  0.55053587  0.95341481  0.50000099     0.77900
C1468       C  0.93935151  0.53809351  0.50000035     0.77900
O1469       O  0.70358861  0.71416698  0.66114365    -0.71300
O1470       O  0.78629946  0.77734265  0.66114362    -0.71500
O1471       O  0.71334981  0.78710185  0.66114363    -0.71300
O1472       O  0.77653841  0.70440776  0.66114361    -0.71300
O1473       O  0.77653806  0.70440706  0.58885534    -0.71300
O1474       O  0.71335016  0.78710183  0.58885538    -0.71300
O1475       O  0.78629998  0.77734198  0.58885542    -0.71300
O1476       O  0.70358847  0.71416699  0.58885545    -0.71400
V1477       V  0.74494408  0.74575479  0.65973061     1.35200
V1478       V  0.74494419  0.74575449  0.59026838     1.35200
C1479       C  0.68935286  0.70341461  0.62499957     0.78000
C1480       C  0.80053545  0.78809462  0.62499954     0.78000
C1481       C  0.70259747  0.80133615  0.62499956     0.77900
C1482       C  0.78729059  0.69017305  0.62499948     0.77900
C1483       C  0.56108764  0.58431329  0.74999978     0.03700
C1484       C  0.57257908  0.60005870  0.54030707    -0.12500
C1485       C  0.59297262  0.63280167  0.54098854     0.01200
C1486       C  0.60109328  0.64978307  0.75000059    -0.11000
C1487       C  0.59297393  0.63280138  0.70901224     0.03600
C1488       C  0.57258078  0.60005819  0.70969334    -0.10400
H1489       H  0.56616525  0.58604704  0.57103220     0.09200
H1490       H  0.61413836  0.67624506  0.75000088     0.06800
H1491       H  0.56616692  0.58604672  0.67896812     0.06600
C1492       C  0.65637280  0.67961646  0.62499975     0.03100
C1493       C  0.64062947  0.66811950  0.66530644    -0.12500
C1494       C  0.60788709  0.64771812  0.66598832     0.01200
C1495       C  0.59090403  0.63959427  0.62500041    -0.11000
C1496       C  0.60788643  0.64771826  0.58401220     0.03600
C1497       C  0.64062878  0.66811985  0.58469321    -0.10400
H1498       H  0.65464255  0.67453643  0.69603163     0.09200
H1499       H  0.56444167  0.62654205  0.62500065     0.06800
H1500       H  0.65464118  0.67453687  0.55396830     0.06600
C1501       C  0.83351019  0.81189874  0.87499966     0.03700
C1502       C  0.84925286  0.82339634  0.91530667    -0.12500
C1503       C  0.88199503  0.84379809  0.91598833     0.01200
C1504       C  0.89897870  0.85192161  0.87500054    -0.11000
C1505       C  0.88199693  0.84379615  0.83401213     0.03600
C1506       C  0.84925481  0.82339448  0.83469337    -0.10400
H1507       H  0.83524012  0.81697990  0.94603027     0.09200
H1508       H  0.92544004  0.86497370  0.87500090     0.06800
H1509       H  0.83524265  0.81697618  0.80396725     0.06600
C1510       C  0.92879938  0.90719734  0.74999927     0.03700
C1511       C  0.91730465  0.89145447  0.79030627    -0.12500
C1512       C  0.89691144  0.85871130  0.79098822     0.01200
C1513       C  0.88879376  0.84172789  0.75000063    -0.11000
C1514       C  0.89690772  0.85871497  0.95901257     0.03600
C1515       C  0.91730143  0.89145771  0.95969403    -0.10400
H1516       H  0.92371735  0.90546698  0.82103037     0.09200
H1517       H  0.87574850  0.81526505  0.75000124     0.06800
H1518       H  0.92371571  0.90546875  0.92896972     0.06600
C1519       C  0.81108856  0.65719915  0.87499986     0.03700
C1520       C  0.82258164  0.64145502  0.91530669    -0.12500
C1521       C  0.84297426  0.60871133  0.91598848     0.01200
C1522       C  0.85109305  0.59172812  0.87500059    -0.11000
C1523       C  0.84297329  0.60870958  0.83401218     0.03600
C1524       C  0.82258084  0.64145347  0.83469329    -0.10400
H1525       H  0.81616806  0.65546729  0.94603170     0.09200
H1526       H  0.86413790  0.56526626  0.87500098     0.06800
H1527       H  0.81616654  0.65546462  0.80396775     0.06600
C1528       C  0.90637259  0.56189452  0.74999959     0.03700
C1529       C  0.89063105  0.57339506  0.95969386    -0.12500
C1530       C  0.85788790  0.59379559  0.95901246     0.01200
C1531       C  0.84090202  0.60191453  0.75000047    -0.11000
C1532       C  0.85788585  0.59379188  0.79098829     0.03600
C1533       C  0.89062909  0.57339137  0.79030645    -0.10400
H1534       H  0.90464390  0.56697783  0.92896846     0.09200
H1535       H  0.81443922  0.61496703  0.75000088     0.06800
H1536       H  0.90464255  0.56697546  0.82103124     0.06600
C1537       C  0.67879726  0.83431299  0.87500000     0.03700
C1538       C  0.66730485  0.85005807  0.83469354    -0.12500
C1539       C  0.64691258  0.88280205  0.83401229     0.01200
C1540       C  0.63879285  0.89978393  0.87500059    -0.11000
C1541       C  0.64691150  0.88280132  0.91598852     0.03600
C1542       C  0.66730384  0.85005747  0.91530657    -0.10400
H1543       H  0.67371876  0.83604620  0.80396811     0.09200
H1544       H  0.62574743  0.92624664  0.87500088     0.06800
H1545       H  0.67371705  0.83604487  0.94603229     0.06600
C1546       C  0.58351398  0.92961610  0.74999940     0.03700
C1547       C  0.59925491  0.91811798  0.95969427    -0.12500
C1548       C  0.63199793  0.89771731  0.95901257     0.01200
C1549       C  0.64898427  0.88959550  0.75000056    -0.11000
C1550       C  0.63200030  0.89771902  0.79098832     0.03600
C1551       C  0.59925723  0.91811954  0.79030600    -0.10400
H1552       H  0.58524185  0.92453489  0.92896876     0.09200
H1553       H  0.67544705  0.87654278  0.75000114     0.06800
H1554       H  0.58524299  0.92453597  0.82103195     0.06600
O1555       O  0.52653832  0.53710146  0.78614332    -0.71300
O1556       O  0.96334793  0.95440960  0.78614321    -0.71500
O1557       O  0.53629770  0.96416629  0.78614308    -0.71300
O1558       O  0.95358869  0.52734485  0.78614342    -0.71300
O1559       O  0.95358976  0.52734726  0.96385631    -0.71300
O1560       O  0.53629624  0.96416557  0.96385673    -0.71300
O1561       O  0.96334603  0.95441188  0.96385662    -0.71300
O1562       O  0.52653985  0.53710091  0.96385638    -0.71400
V1563       V  0.99494316  0.99575553  0.78473022     1.35200
V1564       V  0.99494297  0.99575638  0.96526951     1.35200
C1565       C  0.53729303  0.55133470  0.00000045     0.78000
C1566       C  0.95259223  0.94017891  0.00000078     0.78000
C1567       C  0.55053355  0.95341376  0.74999897     0.77900
C1568       C  0.93935309  0.53809708  0.74999933     0.77900
O1569       O  0.70358912  0.71416609  0.91114368    -0.71300
O1570       O  0.78629601  0.77734638  0.91114370    -0.71500
O1571       O  0.71334601  0.78710110  0.91114382    -0.71300
O1572       O  0.77653931  0.70441101  0.91114387    -0.71300
O1573       O  0.77653934  0.70441053  0.83885558    -0.71300
O1574       O  0.71334639  0.78710107  0.83885554    -0.71300
O1575       O  0.78629642  0.77734584  0.83885548    -0.71300
O1576       O  0.70358912  0.71416580  0.83885544    -0.71400
V1577       V  0.74494264  0.74575608  0.90973076     1.35200
V1578       V  0.74494282  0.74575578  0.84026848     1.35200
C1579       C  0.68935392  0.70341310  0.87499964     0.78000
C1580       C  0.80053114  0.78809939  0.87499963     0.78000
C1581       C  0.70259306  0.80133479  0.87499974     0.77900
C1582       C  0.78729260  0.69017718  0.87499975     0.77900
C1583       C  0.56108925  0.58431252  0.00000043     0.03700
C1584       C  0.57258106  0.60005748  0.79030663    -0.12500
C1585       C  0.59297420  0.63280067  0.79098850     0.01200
C1586       C  0.60109530  0.64978211  0.00000067    -0.11000
C1587       C  0.59297578  0.63280007  0.95901255     0.03600
C1588       C  0.57258255  0.60005698  0.95969387    -0.10400
H1589       H  0.56616737  0.58604554  0.82103160     0.09200
H1590       H  0.61414006  0.67624363  0.00000078     0.06800
H1591       H  0.56616867  0.58604527  0.92896877     0.06600
C1592       C  0.65637449  0.67961444  0.87500003     0.03100
C1593       C  0.64063114  0.66811796  0.91530685    -0.12500
C1594       C  0.60788880  0.64771661  0.91598865     0.01200
C1595       C  0.59090576  0.63959256  0.87500077    -0.11000
C1596       C  0.60788806  0.64771664  0.83401247     0.03600
C1597       C  0.64063055  0.66811776  0.83469366    -0.10400
H1598       H  0.65464408  0.67453511  0.94603176     0.09200
H1599       H  0.56444334  0.62654019  0.87500105     0.06800
H1600       H  0.65464314  0.67453479  0.80396833     0.06600
loop_ 
_geom_bond_atom_site_label_1 
_geom_bond_atom_site_label_2 
_geom_bond_distance 
_geom_bond_site_symmetry_2 
_ccdc_geom_bond_type 
C1            C2   1.404       .  A
C1            C6   1.404       .  A
C1           C80   1.488       .  S
C2            C3   1.411       .  A
C2            H7   1.081       .  S
C3            C4   1.410       .  A
C3           C14   1.504       .  S
C4            C5   1.410       .  A
C4            H8   1.079       .  S
C5            C6   1.411       .  A
C5           C12   1.504       .  S
C6            H9   1.081       .  S
C10          C11   1.404       .  A
C10         C315   1.404   1_554  A
C10         C366   1.488       .  S
C11          C12   1.411       .  A
C11          H16   1.081       .  S
C12          C13   1.410       .  A
C13         C314   1.410   1_554  A
C13          H17   1.079       .  S
C14          C15   1.411       .  A
C14         C113   1.410       .  A
C15         C110   1.404       .  A
C15          H18   1.081       .  S
C19          C20   1.404       .  A
C19          C24   1.404       .  A
C19          C82   1.488       .  S
C20          C21   1.411       .  A
C20          H25   1.081       .  S
C21          C22   1.410       .  A
C21          C30   1.504       .  S
C22          C23   1.410       .  A
C22          H26   1.079       .  S
C23          C24   1.411       .  A
C23          C32   1.504       .  S
C24          H27   1.081       .  S
C28          C33   1.404       .  A
C28         C329   1.404   1_554  A
C28          C68   1.488       .  S
C29          C30   1.411       .  A
C29         C128   1.404       .  A
C29          H34   1.081       .  S
C30         C131   1.410       .  A
C31          C32   1.410       .  A
C31         C330   1.410   1_554  A
C31          H35   1.079       .  S
C32          C33   1.411       .  A
C33          H36   1.081       .  S
C37          C38   1.404       .  A
C37          C42   1.404       .  A
C37          C81   1.488       .  S
C38          C39   1.411       .  A
C38          H43   1.081       .  S
C39          C40   1.410       .  A
C39          C50   1.504       .  S
C40          C41   1.410       .  A
C40          H44   1.079       .  S
C41          C42   1.411       .  A
C41          C48   1.504       .  S
C42          H45   1.081       .  S
C46          C51   1.404       .  A
C46         C347   1.404   1_554  A
C46          C67   1.488       .  S
C47          C48   1.411       .  A
C47         C146   1.404       .  A
C47          H52   1.081       .  S
C48         C149   1.410       .  A
C49          C50   1.410       .  A
C49         C348   1.410   1_554  A
C49          H53   1.079       .  S
C50          C51   1.411       .  A
C51          H54   1.081       .  S
O55        V1263   1.904   1_445  S
O55         C365   1.266       .  A
O56          V63   1.904       .  S
O56         C366   1.266       .  A
O57         V863   1.904   1_455  S
O57          C67   1.266       .  A
O58         V463   1.904   1_545  S
O58          C68   1.266       .  A
O59         V464   1.904   1_545  S
O59         C168   1.266       .  A
O60         V864   1.904   1_455  S
O60         C167   1.266       .  A
O61          V64   1.904       .  S
O61          C66   1.266       .  A
O62        V1264   1.904   1_445  S
O62          C65   1.266       .  A
V63        O1255   1.904       .  S
V63         O857   1.904       .  S
V63         O458   1.904       .  S
V63         V364   2.085   1_554  T
V64         O459   1.904       .  S
V64         O860   1.904       .  S
V64        O1262   1.904       .  S
V64         V163   2.085       .  T
C65          C83   1.488       .  S
C65         O155   1.266       .  A
C66         C110   1.488       .  S
C66         O156   1.266       .  A
C67         O360   1.266   1_554  A
C68         O359   1.266   1_554  A
O69          V77   1.904       .  S
O69          C79   1.266       .  A
O70          V77   1.904       .  S
O70          C80   1.266       .  A
O71          V77   1.904       .  S
O71          C81   1.266       .  A
O72          V77   1.904       .  S
O72          C82   1.266       .  A
O73          V78   1.904       .  S
O73          C82   1.266       .  A
O74          V78   1.904       .  S
O74          C81   1.266       .  A
O75          V78   1.904       .  S
O75          C80   1.266       .  A
O76          V78   1.904       .  S
O76          C79   1.266       .  A
V77          V78   2.085       .  T
C79          C92   1.488       .  S
C83          C88   1.404       .  A
C83         C184   1.404       .  A
C84          C85   1.411       .  A
C84         C383   1.404       .  A
C84          H89   1.081       .  S
C85         C386   1.410       .  A
C85          C96   1.504       .  S
C86          C87   1.410       .  A
C86         C185   1.410       .  A
C86          H90   1.079       .  S
C87          C88   1.411       .  A
C87          C94   1.504       .  S
C88          H91   1.081       .  S
C92          C93   1.404       .  A
C92          C97   1.404       .  A
C93          C94   1.411       .  A
C93          H98   1.081       .  S
C94          C95   1.410       .  A
C95          C96   1.410       .  A
C95          H99   1.079       .  S
C96          C97   1.411       .  A
C97         H100   1.081       .  S
C101        C102   1.404       .  A
C101        C106   1.404       .  A
C101        C180   1.488       .  S
C102        C103   1.411       .  A
C102        H107   1.081       .  S
C103        C104   1.410       .  A
C103        C114   1.504       .  S
C104        C105   1.410       .  A
C104        H108   1.079       .  S
C105        C106   1.411       .  A
C105        C112   1.504       .  S
C106        H109   1.081       .  S
C110        C111   1.404       .  A
C111        C112   1.411       .  A
C111        H116   1.081       .  S
C112        C113   1.410       .  A
C113        H117   1.079       .  S
C114        C213   1.410       .  A
C114        C115   1.411       .  A
C115        C210   1.404       .  A
C115        H118   1.081       .  S
C119        C120   1.404       .  A
C119        C124   1.404       .  A
C119        C182   1.488       .  S
C120        C121   1.411       .  A
C120        H125   1.081       .  S
C121        C122   1.410       .  A
C121        C130   1.504       .  S
C122        C123   1.410       .  A
C122        H126   1.079       .  S
C123        C124   1.411       .  A
C123        C132   1.504       .  S
C124        H127   1.081       .  S
C128        C133   1.404       .  A
C128        C168   1.488       .  S
C129        C228   1.404       .  A
C129        C130   1.411       .  A
C129        H134   1.081       .  S
C130        C231   1.410       .  A
C131        C132   1.410       .  A
C131        H135   1.079       .  S
C132        C133   1.411       .  A
C133        H136   1.081       .  S
C137        C138   1.404       .  A
C137        C142   1.404       .  A
C137        C181   1.488       .  S
C138        C139   1.411       .  A
C138        H143   1.081       .  S
C139        C140   1.410       .  A
C139        C150   1.504       .  S
C140        C141   1.410       .  A
C140        H144   1.079       .  S
C141        C142   1.411       .  A
C141        C148   1.504       .  S
C142        H145   1.081       .  S
C146        C151   1.404       .  A
C146        C167   1.488       .  S
C147        C246   1.404       .  A
C147        C148   1.411       .  A
C147        H152   1.081       .  S
C148        C249   1.410       .  A
C149        C150   1.410       .  A
C149        H153   1.079       .  S
C150        C151   1.411       .  A
C151        H154   1.081       .  S
O155       V1363   1.904   1_445  S
O156        V163   1.904       .  S
O157        V963   1.904   1_455  S
O157        C167   1.266       .  A
O158        V563   1.904   1_545  S
O158        C168   1.266       .  A
O159        V564   1.904   1_545  S
O159        C268   1.266       .  A
O160        V964   1.904   1_455  S
O160        C267   1.266       .  A
O161        V164   1.904       .  S
O161        C166   1.266       .  A
O162       V1364   1.904   1_445  S
O162        C165   1.266       .  A
V163       O1355   1.904       .  S
V163        O957   1.904       .  S
V163        O558   1.904       .  S
V164        O559   1.904       .  S
V164        O960   1.904       .  S
V164       O1362   1.904       .  S
V164        V263   2.085       .  T
C165        C183   1.488       .  S
C165        O255   1.266       .  A
C166        C210   1.488       .  S
C166        O256   1.266       .  A
O169        V177   1.904       .  S
O169        C179   1.266       .  A
O170        V177   1.904       .  S
O170        C180   1.266       .  A
O171        V177   1.904       .  S
O171        C181   1.266       .  A
O172        V177   1.904       .  S
O172        C182   1.266       .  A
O173        V178   1.904       .  S
O173        C182   1.266       .  A
O174        V178   1.904       .  S
O174        C181   1.266       .  A
O175        V178   1.904       .  S
O175        C180   1.266       .  A
O176        V178   1.904       .  S
O176        C179   1.266       .  A
V177        V178   2.085       .  T
C179        C192   1.488       .  S
C183        C284   1.404       .  A
C183        C188   1.404       .  A
C184        C185   1.411       .  A
C184        H189   1.081       .  S
C185        C196   1.504       .  S
C186        C285   1.410       .  A
C186        C187   1.410       .  A
C186        H190   1.079       .  S
C187        C188   1.411       .  A
C187        C194   1.504       .  S
C188        H191   1.081       .  S
C192        C193   1.404       .  A
C192        C197   1.404       .  A
C193        C194   1.411       .  A
C193        H198   1.081       .  S
C194        C195   1.410       .  A
C195        C196   1.410       .  A
C195        H199   1.079       .  S
C196        C197   1.411       .  A
C197        H200   1.081       .  S
C201        C202   1.404       .  A
C201        C206   1.404       .  A
C201        C280   1.488       .  S
C202        C203   1.411       .  A
C202        H207   1.081       .  S
C203        C204   1.410       .  A
C203        C214   1.504       .  S
C204        C205   1.410       .  A
C204        H208   1.079       .  S
C205        C206   1.411       .  A
C205        C212   1.504       .  S
C206        H209   1.081       .  S
C210        C211   1.404       .  A
C211        C212   1.411       .  A
C211        H216   1.081       .  S
C212        C213   1.410       .  A
C213        H217   1.079       .  S
C214        C313   1.410       .  A
C214        C215   1.411       .  A
C215        C310   1.404       .  A
C215        H218   1.081       .  S
C219        C220   1.404       .  A
C219        C224   1.404       .  A
C219        C282   1.488       .  S
C220        C221   1.411       .  A
C220        H225   1.081       .  S
C221        C222   1.410       .  A
C221        C230   1.504       .  S
C222        C223   1.410       .  A
C222        H226   1.079       .  S
C223        C224   1.411       .  A
C223        C232   1.504       .  S
C224        H227   1.081       .  S
C228        C233   1.404       .  A
C228        C268   1.488       .  S
C229        C328   1.404       .  A
C229        C230   1.411       .  A
C229        H234   1.081       .  S
C230        C331   1.410       .  A
C231        C232   1.410       .  A
C231        H235   1.079       .  S
C232        C233   1.411       .  A
C233        H236   1.081       .  S
C237        C238   1.404       .  A
C237        C242   1.404       .  A
C237        C281   1.488       .  S
C238        C239   1.411       .  A
C238        H243   1.081       .  S
C239        C240   1.410       .  A
C239        C250   1.504       .  S
C240        C241   1.410       .  A
C240        H244   1.079       .  S
C241        C242   1.411       .  A
C241        C248   1.504       .  S
C242        H245   1.081       .  S
C246        C251   1.404       .  A
C246        C267   1.488       .  S
C247        C346   1.404       .  A
C247        C248   1.411       .  A
C247        H252   1.081       .  S
C248        C349   1.410       .  A
C249        C250   1.410       .  A
C249        H253   1.079       .  S
C250        C251   1.411       .  A
C251        H254   1.081       .  S
O255       V1463   1.904   1_445  S
O256        V263   1.904       .  S
O257       V1063   1.904   1_455  S
O257        C267   1.266       .  A
O258        V663   1.904   1_545  S
O258        C268   1.266       .  A
O259        V664   1.904   1_545  S
O259        C368   1.266       .  A
O260       V1064   1.904   1_455  S
O260        C367   1.266       .  A
O261        V264   1.904       .  S
O261        C266   1.266       .  A
O262       V1464   1.904   1_445  S
O262        C265   1.266       .  A
V263       O1455   1.904       .  S
V263       O1057   1.904       .  S
V263        O658   1.904       .  S
V264        O659   1.904       .  S
V264       O1060   1.904       .  S
V264       O1462   1.904       .  S
V264        V363   2.085       .  T
C265        C283   1.488       .  S
C265        O355   1.266       .  A
C266        C310   1.488       .  S
C266        O356   1.266       .  A
O269        V277   1.904       .  S
O269        C279   1.266       .  A
O270        V277   1.904       .  S
O270        C280   1.266       .  A
O271        V277   1.904       .  S
O271        C281   1.266       .  A
O272        V277   1.904       .  S
O272        C282   1.266       .  A
O273        V278   1.904       .  S
O273        C282   1.266       .  A
O274        V278   1.904       .  S
O274        C281   1.266       .  A
O275        V278   1.904       .  S
O275        C280   1.266       .  A
O276        V278   1.904       .  S
O276        C279   1.266       .  A
V277        V278   2.085       .  T
C279        C292   1.488       .  S
C283        C384   1.404       .  A
C283        C288   1.404       .  A
C284        C285   1.411       .  A
C284        H289   1.081       .  S
C285        C296   1.504       .  S
C286        C385   1.410       .  A
C286        C287   1.410       .  A
C286        H290   1.079       .  S
C287        C288   1.411       .  A
C287        C294   1.504       .  S
C288        H291   1.081       .  S
C292        C293   1.404       .  A
C292        C297   1.404       .  A
C293        C294   1.411       .  A
C293        H298   1.081       .  S
C294        C295   1.410       .  A
C295        C296   1.410       .  A
C295        H299   1.079       .  S
C296        C297   1.411       .  A
C297        H300   1.081       .  S
C301        C302   1.404       .  A
C301        C306   1.404       .  A
C301        C380   1.488       .  S
C302        C303   1.411       .  A
C302        H307   1.081       .  S
C303        C304   1.410       .  A
C303        C314   1.504       .  S
C304        C305   1.410       .  A
C304        H308   1.079       .  S
C305        C306   1.411       .  A
C305        C312   1.504       .  S
C306        H309   1.081       .  S
C310        C311   1.404       .  A
C311        C312   1.411       .  A
C311        H316   1.081       .  S
C312        C313   1.410       .  A
C313        H317   1.079       .  S
C314        C315   1.411       .  A
C315        H318   1.081       .  S
C319        C320   1.404       .  A
C319        C324   1.404       .  A
C319        C382   1.488       .  S
C320        C321   1.411       .  A
C320        H325   1.081       .  S
C321        C322   1.410       .  A
C321        C330   1.504       .  S
C322        C323   1.410       .  A
C322        H326   1.079       .  S
C323        C324   1.411       .  A
C323        C332   1.504       .  S
C324        H327   1.081       .  S
C328        C333   1.404       .  A
C328        C368   1.488       .  S
C329        C330   1.411       .  A
C329        H334   1.081       .  S
C331        C332   1.410       .  A
C331        H335   1.079       .  S
C332        C333   1.411       .  A
C333        H336   1.081       .  S
C337        C338   1.404       .  A
C337        C342   1.404       .  A
C337        C381   1.488       .  S
C338        C339   1.411       .  A
C338        H343   1.081       .  S
C339        C340   1.410       .  A
C339        C350   1.504       .  S
C340        C341   1.410       .  A
C340        H344   1.079       .  S
C341        C342   1.411       .  A
C341        C348   1.504       .  S
C342        H345   1.081       .  S
C346        C351   1.404       .  A
C346        C367   1.488       .  S
C347        C348   1.411       .  A
C347        H352   1.081       .  S
C349        C350   1.410       .  A
C349        H353   1.079       .  S
C350        C351   1.411       .  A
C351        H354   1.081       .  S
O355       V1563   1.904   1_445  S
O356        V363   1.904       .  S
O357       V1163   1.904   1_455  S
O357        C367   1.266       .  A
O358        V763   1.904   1_545  S
O358        C368   1.266       .  A
O359        V764   1.904   1_545  S
O360       V1164   1.904   1_455  S
O361        V364   1.904       .  S
O361        C366   1.266   1_556  A
O362       V1564   1.904   1_445  S
O362        C365   1.266   1_556  A
V363       O1555   1.904       .  S
V363       O1157   1.904       .  S
V363        O758   1.904       .  S
V364        O759   1.904       .  S
V364       O1160   1.904       .  S
V364       O1562   1.904       .  S
C365        C383   1.488       .  S
O369        V377   1.904       .  S
O369        C379   1.266       .  A
O370        V377   1.904       .  S
O370        C380   1.266       .  A
O371        V377   1.904       .  S
O371        C381   1.266       .  A
O372        V377   1.904       .  S
O372        C382   1.266       .  A
O373        V378   1.904       .  S
O373        C382   1.266       .  A
O374        V378   1.904       .  S
O374        C381   1.266       .  A
O375        V378   1.904       .  S
O375        C380   1.266       .  A
O376        V378   1.904       .  S
O376        C379   1.266       .  A
V377        V378   2.085       .  T
C379        C392   1.488       .  S
C383        C388   1.404   1_554  A
C384        C385   1.411       .  A
C384        H389   1.081       .  S
C385        C396   1.504       .  S
C386        C387   1.410   1_554  A
C386        H390   1.079       .  S
C387        C388   1.411       .  A
C387        C394   1.504       .  S
C388        H391   1.081       .  S
C392        C393   1.404       .  A
C392        C397   1.404       .  A
C393        C394   1.411       .  A
C393        H398   1.081       .  S
C394        C395   1.410       .  A
C395        C396   1.410       .  A
C395        H399   1.079       .  S
C396        C397   1.411       .  A
C397        H400   1.081       .  S
C401        C402   1.404       .  A
C401        C406   1.404       .  A
C401        C480   1.488       .  S
C402        C403   1.411       .  A
C402        H407   1.081       .  S
C403        C404   1.410       .  A
C403        C414   1.504       .  S
C404        C405   1.410       .  A
C404        H408   1.079       .  S
C405        C406   1.411       .  A
C405        C412   1.504       .  S
C406        H409   1.081       .  S
C410        C411   1.404       .  A
C410        C715   1.404   1_554  A
C410        C766   1.488       .  S
C411        C412   1.411       .  A
C411        H416   1.081       .  S
C412        C413   1.410       .  A
C413        C714   1.410   1_554  A
C413        H417   1.079       .  S
C414        C513   1.410       .  A
C414        C415   1.411       .  A
C415        C510   1.404       .  A
C415        H418   1.081       .  S
C419        C420   1.404       .  A
C419        C424   1.404       .  A
C419        C482   1.488       .  S
C420        C421   1.411       .  A
C420        H425   1.081       .  S
C421        C422   1.410       .  A
C421        C430   1.504       .  S
C422        C423   1.410       .  A
C422        H426   1.079       .  S
C423        C424   1.411       .  A
C423        C432   1.504       .  S
C424        H427   1.081       .  S
C428        C729   1.404   1_554  A
C428        C433   1.404       .  A
C428        C468   1.488       .  S
C429        C528   1.404       .  A
C429        C430   1.411       .  A
C429        H434   1.081       .  S
C430        C531   1.410       .  A
C431        C730   1.410   1_554  A
C431        C432   1.410       .  A
C431        H435   1.079       .  S
C432        C433   1.411       .  A
C433        H436   1.081       .  S
C437        C438   1.404       .  A
C437        C442   1.404       .  A
C437        C481   1.488       .  S
C438        C439   1.411       .  A
C438        H443   1.081       .  S
C439        C440   1.410       .  A
C439        C450   1.504       .  S
C440        C441   1.410       .  A
C440        H444   1.079       .  S
C441        C442   1.411       .  A
C441        C448   1.504       .  S
C442        H445   1.081       .  S
C446        C747   1.404   1_554  A
C446        C451   1.404       .  A
C446        C467   1.488       .  S
C447        C546   1.404       .  A
C447        C448   1.411       .  A
C447        H452   1.081       .  S
C448        C549   1.410       .  A
C449        C748   1.410   1_554  A
C449        C450   1.410       .  A
C449        H453   1.079       .  S
C450        C451   1.411       .  A
C451        H454   1.081       .  S
O455        V863   1.904   1_455  S
O455        C765   1.266       .  A
O456        V463   1.904       .  S
O456        C766   1.266       .  A
O457       V1263   1.904   1_455  S
O457        C467   1.266       .  A
O458        C468   1.266       .  A
O459        C568   1.266       .  A
O460       V1264   1.904   1_455  S
O460        C567   1.266       .  A
O461        V464   1.904       .  S
O461        C466   1.266       .  A
O462        V864   1.904   1_455  S
O462        C465   1.266       .  A
V463        O855   1.904   1_565  S
V463       O1257   1.904       .  S
V463        V764   2.085   1_554  T
V464       O1260   1.904       .  S
V464        O862   1.904   1_565  S
V464        V563   2.085       .  T
C465        C483   1.488       .  S
C465        O555   1.266       .  A
C466        C510   1.488       .  S
C466        O556   1.266       .  A
C467        O760   1.266   1_554  A
C468        O759   1.266   1_554  A
O469        V477   1.904       .  S
O469        C479   1.266       .  A
O470        V477   1.904       .  S
O470        C480   1.266       .  A
O471        V477   1.904       .  S
O471        C481   1.266       .  A
O472        V477   1.904       .  S
O472        C482   1.266       .  A
O473        V478   1.904       .  S
O473        C482   1.266       .  A
O474        V478   1.904       .  S
O474        C481   1.266       .  A
O475        V478   1.904       .  S
O475        C480   1.266       .  A
O476        V478   1.904       .  S
O476        C479   1.266       .  A
V477        V478   2.085       .  T
C479        C492   1.488       .  S
C483        C584   1.404       .  A
C483        C488   1.404       .  A
C484        C783   1.404       .  A
C484        C485   1.411       .  A
C484        H489   1.081       .  S
C485        C786   1.410       .  A
C485        C496   1.504       .  S
C486        C585   1.410       .  A
C486        C487   1.410       .  A
C486        H490   1.079       .  S
C487        C488   1.411       .  A
C487        C494   1.504       .  S
C488        H491   1.081       .  S
C492        C493   1.404       .  A
C492        C497   1.404       .  A
C493        C494   1.411       .  A
C493        H498   1.081       .  S
C494        C495   1.410       .  A
C495        C496   1.410       .  A
C495        H499   1.079       .  S
C496        C497   1.411       .  A
C497        H500   1.081       .  S
C501        C502   1.404       .  A
C501        C506   1.404       .  A
C501        C580   1.488       .  S
C502        C503   1.411       .  A
C502        H507   1.081       .  S
C503        C504   1.410       .  A
C503        C514   1.504       .  S
C504        C505   1.410       .  A
C504        H508   1.079       .  S
C505        C506   1.411       .  A
C505        C512   1.504       .  S
C506        H509   1.081       .  S
C510        C511   1.404       .  A
C511        C512   1.411       .  A
C511        H516   1.081       .  S
C512        C513   1.410       .  A
C513        H517   1.079       .  S
C514        C613   1.410       .  A
C514        C515   1.411       .  A
C515        C610   1.404       .  A
C515        H518   1.081       .  S
C519        C520   1.404       .  A
C519        C524   1.404       .  A
C519        C582   1.488       .  S
C520        C521   1.411       .  A
C520        H525   1.081       .  S
C521        C522   1.410       .  A
C521        C530   1.504       .  S
C522        C523   1.410       .  A
C522        H526   1.079       .  S
C523        C524   1.411       .  A
C523        C532   1.504       .  S
C524        H527   1.081       .  S
C528        C533   1.404       .  A
C528        C568   1.488       .  S
C529        C628   1.404       .  A
C529        C530   1.411       .  A
C529        H534   1.081       .  S
C530        C631   1.410       .  A
C531        C532   1.410       .  A
C531        H535   1.079       .  S
C532        C533   1.411       .  A
C533        H536   1.081       .  S
C537        C538   1.404       .  A
C537        C542   1.404       .  A
C537        C581   1.488       .  S
C538        C539   1.411       .  A
C538        H543   1.081       .  S
C539        C540   1.410       .  A
C539        C550   1.504       .  S
C540        C541   1.410       .  A
C540        H544   1.079       .  S
C541        C542   1.411       .  A
C541        C548   1.504       .  S
C542        H545   1.081       .  S
C546        C551   1.404       .  A
C546        C567   1.488       .  S
C547        C646   1.404       .  A
C547        C548   1.411       .  A
C547        H552   1.081       .  S
C548        C649   1.410       .  A
C549        C550   1.410       .  A
C549        H553   1.079       .  S
C550        C551   1.411       .  A
C551        H554   1.081       .  S
O555        V963   1.904   1_455  S
O556        V563   1.904       .  S
O557       V1363   1.904   1_455  S
O557        C567   1.266       .  A
O558        C568   1.266       .  A
O559        C668   1.266       .  A
O560       V1364   1.904   1_455  S
O560        C667   1.266       .  A
O561        V564   1.904       .  S
O561        C566   1.266       .  A
O562        V964   1.904   1_455  S
O562        C565   1.266       .  A
V563        O955   1.904   1_565  S
V563       O1357   1.904       .  S
V564       O1360   1.904       .  S
V564        O962   1.904   1_565  S
V564        V663   2.085       .  T
C565        C583   1.488       .  S
C565        O655   1.266       .  A
C566        C610   1.488       .  S
C566        O656   1.266       .  A
O569        V577   1.904       .  S
O569        C579   1.266       .  A
O570        V577   1.904       .  S
O570        C580   1.266       .  A
O571        V577   1.904       .  S
O571        C581   1.266       .  A
O572        V577   1.904       .  S
O572        C582   1.266       .  A
O573        V578   1.904       .  S
O573        C582   1.266       .  A
O574        V578   1.904       .  S
O574        C581   1.266       .  A
O575        V578   1.904       .  S
O575        C580   1.266       .  A
O576        V578   1.904       .  S
O576        C579   1.266       .  A
V577        V578   2.085       .  T
C579        C592   1.488       .  S
C583        C684   1.404       .  A
C583        C588   1.404       .  A
C584        C585   1.411       .  A
C584        H589   1.081       .  S
C585        C596   1.504       .  S
C586        C685   1.410       .  A
C586        C587   1.410       .  A
C586        H590   1.079       .  S
C587        C588   1.411       .  A
C587        C594   1.504       .  S
C588        H591   1.081       .  S
C592        C593   1.404       .  A
C592        C597   1.404       .  A
C593        C594   1.411       .  A
C593        H598   1.081       .  S
C594        C595   1.410       .  A
C595        C596   1.410       .  A
C595        H599   1.079       .  S
C596        C597   1.411       .  A
C597        H600   1.081       .  S
C601        C602   1.404       .  A
C601        C606   1.404       .  A
C601        C680   1.488       .  S
C602        C603   1.411       .  A
C602        H607   1.081       .  S
C603        C604   1.410       .  A
C603        C614   1.504       .  S
C604        C605   1.410       .  A
C604        H608   1.079       .  S
C605        C606   1.411       .  A
C605        C612   1.504       .  S
C606        H609   1.081       .  S
C610        C611   1.404       .  A
C611        C612   1.411       .  A
C611        H616   1.081       .  S
C612        C613   1.410       .  A
C613        H617   1.079       .  S
C614        C713   1.410       .  A
C614        C615   1.411       .  A
C615        C710   1.404       .  A
C615        H618   1.081       .  S
C619        C620   1.404       .  A
C619        C624   1.404       .  A
C619        C682   1.488       .  S
C620        C621   1.411       .  A
C620        H625   1.081       .  S
C621        C622   1.410       .  A
C621        C630   1.504       .  S
C622        C623   1.410       .  A
C622        H626   1.079       .  S
C623        C624   1.411       .  A
C623        C632   1.504       .  S
C624        H627   1.081       .  S
C628        C633   1.404       .  A
C628        C668   1.488       .  S
C629        C728   1.404       .  A
C629        C630   1.411       .  A
C629        H634   1.081       .  S
C630        C731   1.410       .  A
C631        C632   1.410       .  A
C631        H635   1.079       .  S
C632        C633   1.411       .  A
C633        H636   1.081       .  S
C637        C638   1.404       .  A
C637        C642   1.404       .  A
C637        C681   1.488       .  S
C638        C639   1.411       .  A
C638        H643   1.081       .  S
C639        C640   1.410       .  A
C639        C650   1.504       .  S
C640        C641   1.410       .  A
C640        H644   1.079       .  S
C641        C642   1.411       .  A
C641        C648   1.504       .  S
C642        H645   1.081       .  S
C646        C651   1.404       .  A
C646        C667   1.488       .  S
C647        C746   1.404       .  A
C647        C648   1.411       .  A
C647        H652   1.081       .  S
C648        C749   1.410       .  A
C649        C650   1.410       .  A
C649        H653   1.079       .  S
C650        C651   1.411       .  A
C651        H654   1.081       .  S
O655       V1063   1.904   1_455  S
O656        V663   1.904       .  S
O657       V1463   1.904   1_455  S
O657        C667   1.266       .  A
O658        C668   1.266       .  A
O659        C768   1.266       .  A
O660       V1464   1.904   1_455  S
O660        C767   1.266       .  A
O661        V664   1.904       .  S
O661        C666   1.266       .  A
O662       V1064   1.904   1_455  S
O662        C665   1.266       .  A
V663       O1055   1.904   1_565  S
V663       O1457   1.904       .  S
V664       O1460   1.904       .  S
V664       O1062   1.904   1_565  S
V664        V763   2.085       .  T
C665        C683   1.488       .  S
C665        O755   1.266       .  A
C666        C710   1.488       .  S
C666        O756   1.266       .  A
O669        V677   1.904       .  S
O669        C679   1.266       .  A
O670        V677   1.904       .  S
O670        C680   1.266       .  A
O671        V677   1.904       .  S
O671        C681   1.266       .  A
O672        V677   1.904       .  S
O672        C682   1.266       .  A
O673        V678   1.904       .  S
O673        C682   1.266       .  A
O674        V678   1.904       .  S
O674        C681   1.266       .  A
O675        V678   1.904       .  S
O675        C680   1.266       .  A
O676        V678   1.904       .  S
O676        C679   1.266       .  A
V677        V678   2.085       .  T
C679        C692   1.488       .  S
C683        C784   1.404       .  A
C683        C688   1.404       .  A
C684        C685   1.411       .  A
C684        H689   1.081       .  S
C685        C696   1.504       .  S
C686        C785   1.410       .  A
C686        C687   1.410       .  A
C686        H690   1.079       .  S
C687        C688   1.411       .  A
C687        C694   1.504       .  S
C688        H691   1.081       .  S
C692        C693   1.404       .  A
C692        C697   1.404       .  A
C693        C694   1.411       .  A
C693        H698   1.081       .  S
C694        C695   1.410       .  A
C695        C696   1.410       .  A
C695        H699   1.079       .  S
C696        C697   1.411       .  A
C697        H700   1.081       .  S
C701        C702   1.404       .  A
C701        C706   1.404       .  A
C701        C780   1.488       .  S
C702        C703   1.411       .  A
C702        H707   1.081       .  S
C703        C704   1.410       .  A
C703        C714   1.504       .  S
C704        C705   1.410       .  A
C704        H708   1.079       .  S
C705        C706   1.411       .  A
C705        C712   1.504       .  S
C706        H709   1.081       .  S
C710        C711   1.404       .  A
C711        C712   1.411       .  A
C711        H716   1.081       .  S
C712        C713   1.410       .  A
C713        H717   1.079       .  S
C714        C715   1.411       .  A
C715        H718   1.081       .  S
C719        C720   1.404       .  A
C719        C724   1.404       .  A
C719        C782   1.488       .  S
C720        C721   1.411       .  A
C720        H725   1.081       .  S
C721        C722   1.410       .  A
C721        C730   1.504       .  S
C722        C723   1.410       .  A
C722        H726   1.079       .  S
C723        C724   1.411       .  A
C723        C732   1.504       .  S
C724        H727   1.081       .  S
C728        C733   1.404       .  A
C728        C768   1.488       .  S
C729        C730   1.411       .  A
C729        H734   1.081       .  S
C731        C732   1.410       .  A
C731        H735   1.079       .  S
C732        C733   1.411       .  A
C733        H736   1.081       .  S
C737        C738   1.404       .  A
C737        C742   1.404       .  A
C737        C781   1.488       .  S
C738        C739   1.411       .  A
C738        H743   1.081       .  S
C739        C740   1.410       .  A
C739        C750   1.504       .  S
C740        C741   1.410       .  A
C740        H744   1.079       .  S
C741        C742   1.411       .  A
C741        C748   1.504       .  S
C742        H745   1.081       .  S
C746        C751   1.404       .  A
C746        C767   1.488       .  S
C747        C748   1.411       .  A
C747        H752   1.081       .  S
C749        C750   1.410       .  A
C749        H753   1.079       .  S
C750        C751   1.411       .  A
C751        H754   1.081       .  S
O755       V1163   1.904   1_455  S
O756        V763   1.904       .  S
O757       V1563   1.904   1_455  S
O757        C767   1.266       .  A
O758        C768   1.266       .  A
O760       V1564   1.904   1_455  S
O761        V764   1.904       .  S
O761        C766   1.266   1_556  A
O762       V1164   1.904   1_455  S
O762        C765   1.266   1_556  A
V763       O1155   1.904   1_565  S
V763       O1557   1.904       .  S
V764       O1560   1.904       .  S
V764       O1162   1.904   1_565  S
C765        C783   1.488       .  S
O769        V777   1.904       .  S
O769        C779   1.266       .  A
O770        V777   1.904       .  S
O770        C780   1.266       .  A
O771        V777   1.904       .  S
O771        C781   1.266       .  A
O772        V777   1.904       .  S
O772        C782   1.266       .  A
O773        V778   1.904       .  S
O773        C782   1.266       .  A
O774        V778   1.904       .  S
O774        C781   1.266       .  A
O775        V778   1.904       .  S
O775        C780   1.266       .  A
O776        V778   1.904       .  S
O776        C779   1.266       .  A
V777        V778   2.085       .  T
C779        C792   1.488       .  S
C783        C788   1.404   1_554  A
C784        C785   1.411       .  A
C784        H789   1.081       .  S
C785        C796   1.504       .  S
C786        C787   1.410   1_554  A
C786        H790   1.079       .  S
C787        C788   1.411       .  A
C787        C794   1.504       .  S
C788        H791   1.081       .  S
C792        C793   1.404       .  A
C792        C797   1.404       .  A
C793        C794   1.411       .  A
C793        H798   1.081       .  S
C794        C795   1.410       .  A
C795        C796   1.410       .  A
C795        H799   1.079       .  S
C796        C797   1.411       .  A
C797        H800   1.081       .  S
C801        C802   1.404       .  A
C801        C806   1.404       .  A
C801        C880   1.488       .  S
C802        C803   1.411       .  A
C802        H807   1.081       .  S
C803        C804   1.410       .  A
C803        C814   1.504       .  S
C804        C805   1.410       .  A
C804        H808   1.079       .  S
C805        C806   1.411       .  A
C805        C812   1.504       .  S
C806        H809   1.081       .  S
C810        C811   1.404       .  A
C810       C1115   1.404   1_554  A
C810       C1166   1.488       .  S
C811        C812   1.411       .  A
C811        H816   1.081       .  S
C812        C813   1.410       .  A
C813       C1114   1.410   1_554  A
C813        H817   1.079       .  S
C814        C913   1.410       .  A
C814        C815   1.411       .  A
C815        C910   1.404       .  A
C815        H818   1.081       .  S
C819        C820   1.404       .  A
C819        C824   1.404       .  A
C819        C882   1.488       .  S
C820        C821   1.411       .  A
C820        H825   1.081       .  S
C821        C822   1.410       .  A
C821        C830   1.504       .  S
C822        C823   1.410       .  A
C822        H826   1.079       .  S
C823        C824   1.411       .  A
C823        C832   1.504       .  S
C824        H827   1.081       .  S
C828       C1129   1.404   1_554  A
C828        C833   1.404       .  A
C828        C868   1.488       .  S
C829        C928   1.404       .  A
C829        C830   1.411       .  A
C829        H834   1.081       .  S
C830        C931   1.410       .  A
C831       C1130   1.410   1_554  A
C831        C832   1.410       .  A
C831        H835   1.079       .  S
C832        C833   1.411       .  A
C833        H836   1.081       .  S
C837        C838   1.404       .  A
C837        C842   1.404       .  A
C837        C881   1.488       .  S
C838        C839   1.411       .  A
C838        H843   1.081       .  S
C839        C840   1.410       .  A
C839        C850   1.504       .  S
C840        C841   1.410       .  A
C840        H844   1.079       .  S
C841        C842   1.411       .  A
C841        C848   1.504       .  S
C842        H845   1.081       .  S
C846       C1147   1.404   1_554  A
C846        C851   1.404       .  A
C846        C867   1.488       .  S
C847        C946   1.404       .  A
C847        C848   1.411       .  A
C847        H852   1.081       .  S
C848        C949   1.410       .  A
C849       C1148   1.410   1_554  A
C849        C850   1.410       .  A
C849        H853   1.079       .  S
C850        C851   1.411       .  A
C851        H854   1.081       .  S
O855       C1165   1.266       .  A
O856        V863   1.904       .  S
O856       C1166   1.266       .  A
O857        C867   1.266       .  A
O858       V1263   1.904   1_545  S
O858        C868   1.266       .  A
O859       V1264   1.904   1_545  S
O859        C968   1.266       .  A
O860        C967   1.266       .  A
O861        V864   1.904       .  S
O861        C866   1.266       .  A
O862        C865   1.266       .  A
V863       O1258   1.904       .  S
V863       V1164   2.085   1_554  T
V864       O1259   1.904       .  S
V864        V963   2.085       .  T
C865        C883   1.488       .  S
C865        O955   1.266       .  A
C866        C910   1.488       .  S
C866        O956   1.266       .  A
C867       O1160   1.266   1_554  A
C868       O1159   1.266   1_554  A
O869        V877   1.904       .  S
O869        C879   1.266       .  A
O870        V877   1.904       .  S
O870        C880   1.266       .  A
O871        V877   1.904       .  S
O871        C881   1.266       .  A
O872        V877   1.904       .  S
O872        C882   1.266       .  A
O873        V878   1.904       .  S
O873        C882   1.266       .  A
O874        V878   1.904       .  S
O874        C881   1.266       .  A
O875        V878   1.904       .  S
O875        C880   1.266       .  A
O876        V878   1.904       .  S
O876        C879   1.266       .  A
V877        V878   2.085       .  T
C879        C892   1.488       .  S
C883        C984   1.404       .  A
C883        C888   1.404       .  A
C884       C1183   1.404       .  A
C884        C885   1.411       .  A
C884        H889   1.081       .  S
C885       C1186   1.410       .  A
C885        C896   1.504       .  S
C886        C985   1.410       .  A
C886        C887   1.410       .  A
C886        H890   1.079       .  S
C887        C888   1.411       .  A
C887        C894   1.504       .  S
C888        H891   1.081       .  S
C892        C893   1.404       .  A
C892        C897   1.404       .  A
C893        C894   1.411       .  A
C893        H898   1.081       .  S
C894        C895   1.410       .  A
C895        C896   1.410       .  A
C895        H899   1.079       .  S
C896        C897   1.411       .  A
C897        H900   1.081       .  S
C901        C902   1.404       .  A
C901        C906   1.404       .  A
C901        C980   1.488       .  S
C902        C903   1.411       .  A
C902        H907   1.081       .  S
C903        C904   1.410       .  A
C903        C914   1.504       .  S
C904        C905   1.410       .  A
C904        H908   1.079       .  S
C905        C906   1.411       .  A
C905        C912   1.504       .  S
C906        H909   1.081       .  S
C910        C911   1.404       .  A
C911        C912   1.411       .  A
C911        H916   1.081       .  S
C912        C913   1.410       .  A
C913        H917   1.079       .  S
C914       C1013   1.410       .  A
C914        C915   1.411       .  A
C915       C1010   1.404       .  A
C915        H918   1.081       .  S
C919        C920   1.404       .  A
C919        C924   1.404       .  A
C919        C982   1.488       .  S
C920        C921   1.411       .  A
C920        H925   1.081       .  S
C921        C922   1.410       .  A
C921        C930   1.504       .  S
C922        C923   1.410       .  A
C922        H926   1.079       .  S
C923        C924   1.411       .  A
C923        C932   1.504       .  S
C924        H927   1.081       .  S
C928        C933   1.404       .  A
C928        C968   1.488       .  S
C929       C1028   1.404       .  A
C929        C930   1.411       .  A
C929        H934   1.081       .  S
C930       C1031   1.410       .  A
C931        C932   1.410       .  A
C931        H935   1.079       .  S
C932        C933   1.411       .  A
C933        H936   1.081       .  S
C937        C938   1.404       .  A
C937        C942   1.404       .  A
C937        C981   1.488       .  S
C938        C939   1.411       .  A
C938        H943   1.081       .  S
C939        C940   1.410       .  A
C939        C950   1.504       .  S
C940        C941   1.410       .  A
C940        H944   1.079       .  S
C941        C942   1.411       .  A
C941        C948   1.504       .  S
C942        H945   1.081       .  S
C946        C951   1.404       .  A
C946        C967   1.488       .  S
C947       C1046   1.404       .  A
C947        C948   1.411       .  A
C947        H952   1.081       .  S
C948       C1049   1.410       .  A
C949        C950   1.410       .  A
C949        H953   1.079       .  S
C950        C951   1.411       .  A
C951        H954   1.081       .  S
O956        V963   1.904       .  S
O957        C967   1.266       .  A
O958       V1363   1.904   1_545  S
O958        C968   1.266       .  A
O959       V1364   1.904   1_545  S
O959       C1068   1.266       .  A
O960       C1067   1.266       .  A
O961        V964   1.904       .  S
O961        C966   1.266       .  A
O962        C965   1.266       .  A
V963       O1358   1.904       .  S
V964       O1359   1.904       .  S
V964       V1063   2.085       .  T
C965        C983   1.488       .  S
C965       O1055   1.266       .  A
C966       C1010   1.488       .  S
C966       O1056   1.266       .  A
O969        V977   1.904       .  S
O969        C979   1.266       .  A
O970        V977   1.904       .  S
O970        C980   1.266       .  A
O971        V977   1.904       .  S
O971        C981   1.266       .  A
O972        V977   1.904       .  S
O972        C982   1.266       .  A
O973        V978   1.904       .  S
O973        C982   1.266       .  A
O974        V978   1.904       .  S
O974        C981   1.266       .  A
O975        V978   1.904       .  S
O975        C980   1.266       .  A
O976        V978   1.904       .  S
O976        C979   1.266       .  A
V977        V978   2.085       .  T
C979        C992   1.488       .  S
C983       C1084   1.404       .  A
C983        C988   1.404       .  A
C984        C985   1.411       .  A
C984        H989   1.081       .  S
C985        C996   1.504       .  S
C986       C1085   1.410       .  A
C986        C987   1.410       .  A
C986        H990   1.079       .  S
C987        C988   1.411       .  A
C987        C994   1.504       .  S
C988        H991   1.081       .  S
C992        C993   1.404       .  A
C992        C997   1.404       .  A
C993        C994   1.411       .  A
C993        H998   1.081       .  S
C994        C995   1.410       .  A
C995        C996   1.410       .  A
C995        H999   1.079       .  S
C996        C997   1.411       .  A
C997       H1000   1.081       .  S
C1001      C1002   1.404       .  A
C1001      C1006   1.404       .  A
C1001      C1080   1.488       .  S
C1002      C1003   1.411       .  A
C1002      H1007   1.081       .  S
C1003      C1004   1.410       .  A
C1003      C1014   1.504       .  S
C1004      C1005   1.410       .  A
C1004      H1008   1.079       .  S
C1005      C1006   1.411       .  A
C1005      C1012   1.504       .  S
C1006      H1009   1.081       .  S
C1010      C1011   1.404       .  A
C1011      C1012   1.411       .  A
C1011      H1016   1.081       .  S
C1012      C1013   1.410       .  A
C1013      H1017   1.079       .  S
C1014      C1113   1.410       .  A
C1014      C1015   1.411       .  A
C1015      C1110   1.404       .  A
C1015      H1018   1.081       .  S
C1019      C1020   1.404       .  A
C1019      C1024   1.404       .  A
C1019      C1082   1.488       .  S
C1020      C1021   1.411       .  A
C1020      H1025   1.081       .  S
C1021      C1022   1.410       .  A
C1021      C1030   1.504       .  S
C1022      C1023   1.410       .  A
C1022      H1026   1.079       .  S
C1023      C1024   1.411       .  A
C1023      C1032   1.504       .  S
C1024      H1027   1.081       .  S
C1028      C1033   1.404       .  A
C1028      C1068   1.488       .  S
C1029      C1128   1.404       .  A
C1029      C1030   1.411       .  A
C1029      H1034   1.081       .  S
C1030      C1131   1.410       .  A
C1031      C1032   1.410       .  A
C1031      H1035   1.079       .  S
C1032      C1033   1.411       .  A
C1033      H1036   1.081       .  S
C1037      C1038   1.404       .  A
C1037      C1042   1.404       .  A
C1037      C1081   1.488       .  S
C1038      C1039   1.411       .  A
C1038      H1043   1.081       .  S
C1039      C1040   1.410       .  A
C1039      C1050   1.504       .  S
C1040      C1041   1.410       .  A
C1040      H1044   1.079       .  S
C1041      C1042   1.411       .  A
C1041      C1048   1.504       .  S
C1042      H1045   1.081       .  S
C1046      C1051   1.404       .  A
C1046      C1067   1.488       .  S
C1047      C1146   1.404       .  A
C1047      C1048   1.411       .  A
C1047      H1052   1.081       .  S
C1048      C1149   1.410       .  A
C1049      C1050   1.410       .  A
C1049      H1053   1.079       .  S
C1050      C1051   1.411       .  A
C1051      H1054   1.081       .  S
O1056      V1063   1.904       .  S
O1057      C1067   1.266       .  A
O1058      V1463   1.904   1_545  S
O1058      C1068   1.266       .  A
O1059      V1464   1.904   1_545  S
O1059      C1168   1.266       .  A
O1060      C1167   1.266       .  A
O1061      V1064   1.904       .  S
O1061      C1066   1.266       .  A
O1062      C1065   1.266       .  A
V1063      O1458   1.904       .  S
V1064      O1459   1.904       .  S
V1064      V1163   2.085       .  T
C1065      C1083   1.488       .  S
C1065      O1155   1.266       .  A
C1066      C1110   1.488       .  S
C1066      O1156   1.266       .  A
O1069      V1077   1.904       .  S
O1069      C1079   1.266       .  A
O1070      V1077   1.904       .  S
O1070      C1080   1.266       .  A
O1071      V1077   1.904       .  S
O1071      C1081   1.266       .  A
O1072      V1077   1.904       .  S
O1072      C1082   1.266       .  A
O1073      V1078   1.904       .  S
O1073      C1082   1.266       .  A
O1074      V1078   1.904       .  S
O1074      C1081   1.266       .  A
O1075      V1078   1.904       .  S
O1075      C1080   1.266       .  A
O1076      V1078   1.904       .  S
O1076      C1079   1.266       .  A
V1077      V1078   2.085       .  T
C1079      C1092   1.488       .  S
C1083      C1184   1.404       .  A
C1083      C1088   1.404       .  A
C1084      C1085   1.411       .  A
C1084      H1089   1.081       .  S
C1085      C1096   1.504       .  S
C1086      C1185   1.410       .  A
C1086      C1087   1.410       .  A
C1086      H1090   1.079       .  S
C1087      C1088   1.411       .  A
C1087      C1094   1.504       .  S
C1088      H1091   1.081       .  S
C1092      C1093   1.404       .  A
C1092      C1097   1.404       .  A
C1093      C1094   1.411       .  A
C1093      H1098   1.081       .  S
C1094      C1095   1.410       .  A
C1095      C1096   1.410       .  A
C1095      H1099   1.079       .  S
C1096      C1097   1.411       .  A
C1097      H1100   1.081       .  S
C1101      C1102   1.404       .  A
C1101      C1106   1.404       .  A
C1101      C1180   1.488       .  S
C1102      C1103   1.411       .  A
C1102      H1107   1.081       .  S
C1103      C1104   1.410       .  A
C1103      C1114   1.504       .  S
C1104      C1105   1.410       .  A
C1104      H1108   1.079       .  S
C1105      C1106   1.411       .  A
C1105      C1112   1.504       .  S
C1106      H1109   1.081       .  S
C1110      C1111   1.404       .  A
C1111      C1112   1.411       .  A
C1111      H1116   1.081       .  S
C1112      C1113   1.410       .  A
C1113      H1117   1.079       .  S
C1114      C1115   1.411       .  A
C1115      H1118   1.081       .  S
C1119      C1120   1.404       .  A
C1119      C1124   1.404       .  A
C1119      C1182   1.488       .  S
C1120      C1121   1.411       .  A
C1120      H1125   1.081       .  S
C1121      C1122   1.410       .  A
C1121      C1130   1.504       .  S
C1122      C1123   1.410       .  A
C1122      H1126   1.079       .  S
C1123      C1124   1.411       .  A
C1123      C1132   1.504       .  S
C1124      H1127   1.081       .  S
C1128      C1133   1.404       .  A
C1128      C1168   1.488       .  S
C1129      C1130   1.411       .  A
C1129      H1134   1.081       .  S
C1131      C1132   1.410       .  A
C1131      H1135   1.079       .  S
C1132      C1133   1.411       .  A
C1133      H1136   1.081       .  S
C1137      C1138   1.404       .  A
C1137      C1142   1.404       .  A
C1137      C1181   1.488       .  S
C1138      C1139   1.411       .  A
C1138      H1143   1.081       .  S
C1139      C1140   1.410       .  A
C1139      C1150   1.504       .  S
C1140      C1141   1.410       .  A
C1140      H1144   1.079       .  S
C1141      C1142   1.411       .  A
C1141      C1148   1.504       .  S
C1142      H1145   1.081       .  S
C1146      C1151   1.404       .  A
C1146      C1167   1.488       .  S
C1147      C1148   1.411       .  A
C1147      H1152   1.081       .  S
C1149      C1150   1.410       .  A
C1149      H1153   1.079       .  S
C1150      C1151   1.411       .  A
C1151      H1154   1.081       .  S
O1156      V1163   1.904       .  S
O1157      C1167   1.266       .  A
O1158      V1563   1.904   1_545  S
O1158      C1168   1.266       .  A
O1159      V1564   1.904   1_545  S
O1161      V1164   1.904       .  S
O1161      C1166   1.266   1_556  A
O1162      C1165   1.266   1_556  A
V1163      O1558   1.904       .  S
V1164      O1559   1.904       .  S
C1165      C1183   1.488       .  S
O1169      V1177   1.904       .  S
O1169      C1179   1.266       .  A
O1170      V1177   1.904       .  S
O1170      C1180   1.266       .  A
O1171      V1177   1.904       .  S
O1171      C1181   1.266       .  A
O1172      V1177   1.904       .  S
O1172      C1182   1.266       .  A
O1173      V1178   1.904       .  S
O1173      C1182   1.266       .  A
O1174      V1178   1.904       .  S
O1174      C1181   1.266       .  A
O1175      V1178   1.904       .  S
O1175      C1180   1.266       .  A
O1176      V1178   1.904       .  S
O1176      C1179   1.266       .  A
V1177      V1178   2.085       .  T
C1179      C1192   1.488       .  S
C1183      C1188   1.404   1_554  A
C1184      C1185   1.411       .  A
C1184      H1189   1.081       .  S
C1185      C1196   1.504       .  S
C1186      C1187   1.410   1_554  A
C1186      H1190   1.079       .  S
C1187      C1188   1.411       .  A
C1187      C1194   1.504       .  S
C1188      H1191   1.081       .  S
C1192      C1193   1.404       .  A
C1192      C1197   1.404       .  A
C1193      C1194   1.411       .  A
C1193      H1198   1.081       .  S
C1194      C1195   1.410       .  A
C1195      C1196   1.410       .  A
C1195      H1199   1.079       .  S
C1196      C1197   1.411       .  A
C1197      H1200   1.081       .  S
C1201      C1202   1.404       .  A
C1201      C1206   1.404       .  A
C1201      C1280   1.488       .  S
C1202      C1203   1.411       .  A
C1202      H1207   1.081       .  S
C1203      C1204   1.410       .  A
C1203      C1214   1.504       .  S
C1204      C1205   1.410       .  A
C1204      H1208   1.079       .  S
C1205      C1206   1.411       .  A
C1205      C1212   1.504       .  S
C1206      H1209   1.081       .  S
C1210      C1211   1.404       .  A
C1210      C1515   1.404   1_554  A
C1210      C1566   1.488       .  S
C1211      C1212   1.411       .  A
C1211      H1216   1.081       .  S
C1212      C1213   1.410       .  A
C1213      C1514   1.410   1_554  A
C1213      H1217   1.079       .  S
C1214      C1313   1.410       .  A
C1214      C1215   1.411       .  A
C1215      C1310   1.404       .  A
C1215      H1218   1.081       .  S
C1219      C1220   1.404       .  A
C1219      C1224   1.404       .  A
C1219      C1282   1.488       .  S
C1220      C1221   1.411       .  A
C1220      H1225   1.081       .  S
C1221      C1222   1.410       .  A
C1221      C1230   1.504       .  S
C1222      C1223   1.410       .  A
C1222      H1226   1.079       .  S
C1223      C1224   1.411       .  A
C1223      C1232   1.504       .  S
C1224      H1227   1.081       .  S
C1228      C1529   1.404   1_554  A
C1228      C1233   1.404       .  A
C1228      C1268   1.488       .  S
C1229      C1328   1.404       .  A
C1229      C1230   1.411       .  A
C1229      H1234   1.081       .  S
C1230      C1331   1.410       .  A
C1231      C1530   1.410   1_554  A
C1231      C1232   1.410       .  A
C1231      H1235   1.079       .  S
C1232      C1233   1.411       .  A
C1233      H1236   1.081       .  S
C1237      C1238   1.404       .  A
C1237      C1242   1.404       .  A
C1237      C1281   1.488       .  S
C1238      C1239   1.411       .  A
C1238      H1243   1.081       .  S
C1239      C1240   1.410       .  A
C1239      C1250   1.504       .  S
C1240      C1241   1.410       .  A
C1240      H1244   1.079       .  S
C1241      C1242   1.411       .  A
C1241      C1248   1.504       .  S
C1242      H1245   1.081       .  S
C1246      C1547   1.404   1_554  A
C1246      C1251   1.404       .  A
C1246      C1267   1.488       .  S
C1247      C1346   1.404       .  A
C1247      C1248   1.411       .  A
C1247      H1252   1.081       .  S
C1248      C1349   1.410       .  A
C1249      C1548   1.410   1_554  A
C1249      C1250   1.410       .  A
C1249      H1253   1.079       .  S
C1250      C1251   1.411       .  A
C1251      H1254   1.081       .  S
O1255      C1565   1.266       .  A
O1256      V1263   1.904       .  S
O1256      C1566   1.266       .  A
O1257      C1267   1.266       .  A
O1258      C1268   1.266       .  A
O1259      C1368   1.266       .  A
O1260      C1367   1.266       .  A
O1261      V1264   1.904       .  S
O1261      C1266   1.266       .  A
O1262      C1265   1.266       .  A
V1263      V1564   2.085   1_554  T
V1264      V1363   2.085       .  T
C1265      C1283   1.488       .  S
C1265      O1355   1.266       .  A
C1266      C1310   1.488       .  S
C1266      O1356   1.266       .  A
C1267      O1560   1.266   1_554  A
C1268      O1559   1.266   1_554  A
O1269      V1277   1.904       .  S
O1269      C1279   1.266       .  A
O1270      V1277   1.904       .  S
O1270      C1280   1.266       .  A
O1271      V1277   1.904       .  S
O1271      C1281   1.266       .  A
O1272      V1277   1.904       .  S
O1272      C1282   1.266       .  A
O1273      V1278   1.904       .  S
O1273      C1282   1.266       .  A
O1274      V1278   1.904       .  S
O1274      C1281   1.266       .  A
O1275      V1278   1.904       .  S
O1275      C1280   1.266       .  A
O1276      V1278   1.904       .  S
O1276      C1279   1.266       .  A
V1277      V1278   2.085       .  T
C1279      C1292   1.488       .  S
C1283      C1384   1.404       .  A
C1283      C1288   1.404       .  A
C1284      C1583   1.404       .  A
C1284      C1285   1.411       .  A
C1284      H1289   1.081       .  S
C1285      C1586   1.410       .  A
C1285      C1296   1.504       .  S
C1286      C1385   1.410       .  A
C1286      C1287   1.410       .  A
C1286      H1290   1.079       .  S
C1287      C1288   1.411       .  A
C1287      C1294   1.504       .  S
C1288      H1291   1.081       .  S
C1292      C1293   1.404       .  A
C1292      C1297   1.404       .  A
C1293      C1294   1.411       .  A
C1293      H1298   1.081       .  S
C1294      C1295   1.410       .  A
C1295      C1296   1.410       .  A
C1295      H1299   1.079       .  S
C1296      C1297   1.411       .  A
C1297      H1300   1.081       .  S
C1301      C1302   1.404       .  A
C1301      C1306   1.404       .  A
C1301      C1380   1.488       .  S
C1302      C1303   1.411       .  A
C1302      H1307   1.081       .  S
C1303      C1304   1.410       .  A
C1303      C1314   1.504       .  S
C1304      C1305   1.410       .  A
C1304      H1308   1.079       .  S
C1305      C1306   1.411       .  A
C1305      C1312   1.504       .  S
C1306      H1309   1.081       .  S
C1310      C1311   1.404       .  A
C1311      C1312   1.411       .  A
C1311      H1316   1.081       .  S
C1312      C1313   1.410       .  A
C1313      H1317   1.079       .  S
C1314      C1413   1.410       .  A
C1314      C1315   1.411       .  A
C1315      C1410   1.404       .  A
C1315      H1318   1.081       .  S
C1319      C1320   1.404       .  A
C1319      C1324   1.404       .  A
C1319      C1382   1.488       .  S
C1320      C1321   1.411       .  A
C1320      H1325   1.081       .  S
C1321      C1322   1.410       .  A
C1321      C1330   1.504       .  S
C1322      C1323   1.410       .  A
C1322      H1326   1.079       .  S
C1323      C1324   1.411       .  A
C1323      C1332   1.504       .  S
C1324      H1327   1.081       .  S
C1328      C1333   1.404       .  A
C1328      C1368   1.488       .  S
C1329      C1428   1.404       .  A
C1329      C1330   1.411       .  A
C1329      H1334   1.081       .  S
C1330      C1431   1.410       .  A
C1331      C1332   1.410       .  A
C1331      H1335   1.079       .  S
C1332      C1333   1.411       .  A
C1333      H1336   1.081       .  S
C1337      C1338   1.404       .  A
C1337      C1342   1.404       .  A
C1337      C1381   1.488       .  S
C1338      C1339   1.411       .  A
C1338      H1343   1.081       .  S
C1339      C1340   1.410       .  A
C1339      C1350   1.504       .  S
C1340      C1341   1.410       .  A
C1340      H1344   1.079       .  S
C1341      C1342   1.411       .  A
C1341      C1348   1.504       .  S
C1342      H1345   1.081       .  S
C1346      C1351   1.404       .  A
C1346      C1367   1.488       .  S
C1347      C1446   1.404       .  A
C1347      C1348   1.411       .  A
C1347      H1352   1.081       .  S
C1348      C1449   1.410       .  A
C1349      C1350   1.410       .  A
C1349      H1353   1.079       .  S
C1350      C1351   1.411       .  A
C1351      H1354   1.081       .  S
O1356      V1363   1.904       .  S
O1357      C1367   1.266       .  A
O1358      C1368   1.266       .  A
O1359      C1468   1.266       .  A
O1360      C1467   1.266       .  A
O1361      V1364   1.904       .  S
O1361      C1366   1.266       .  A
O1362      C1365   1.266       .  A
V1364      V1463   2.085       .  T
C1365      C1383   1.488       .  S
C1365      O1455   1.266       .  A
C1366      C1410   1.488       .  S
C1366      O1456   1.266       .  A
O1369      V1377   1.904       .  S
O1369      C1379   1.266       .  A
O1370      V1377   1.904       .  S
O1370      C1380   1.266       .  A
O1371      V1377   1.904       .  S
O1371      C1381   1.266       .  A
O1372      V1377   1.904       .  S
O1372      C1382   1.266       .  A
O1373      V1378   1.904       .  S
O1373      C1382   1.266       .  A
O1374      V1378   1.904       .  S
O1374      C1381   1.266       .  A
O1375      V1378   1.904       .  S
O1375      C1380   1.266       .  A
O1376      V1378   1.904       .  S
O1376      C1379   1.266       .  A
V1377      V1378   2.085       .  T
C1379      C1392   1.488       .  S
C1383      C1484   1.404       .  A
C1383      C1388   1.404       .  A
C1384      C1385   1.411       .  A
C1384      H1389   1.081       .  S
C1385      C1396   1.504       .  S
C1386      C1485   1.410       .  A
C1386      C1387   1.410       .  A
C1386      H1390   1.079       .  S
C1387      C1388   1.411       .  A
C1387      C1394   1.504       .  S
C1388      H1391   1.081       .  S
C1392      C1393   1.404       .  A
C1392      C1397   1.404       .  A
C1393      C1394   1.411       .  A
C1393      H1398   1.081       .  S
C1394      C1395   1.410       .  A
C1395      C1396   1.410       .  A
C1395      H1399   1.079       .  S
C1396      C1397   1.411       .  A
C1397      H1400   1.081       .  S
C1401      C1402   1.404       .  A
C1401      C1406   1.404       .  A
C1401      C1480   1.488       .  S
C1402      C1403   1.411       .  A
C1402      H1407   1.081       .  S
C1403      C1404   1.410       .  A
C1403      C1414   1.504       .  S
C1404      C1405   1.410       .  A
C1404      H1408   1.079       .  S
C1405      C1406   1.411       .  A
C1405      C1412   1.504       .  S
C1406      H1409   1.081       .  S
C1410      C1411   1.404       .  A
C1411      C1412   1.411       .  A
C1411      H1416   1.081       .  S
C1412      C1413   1.410       .  A
C1413      H1417   1.079       .  S
C1414      C1513   1.410       .  A
C1414      C1415   1.411       .  A
C1415      C1510   1.404       .  A
C1415      H1418   1.081       .  S
C1419      C1420   1.404       .  A
C1419      C1424   1.404       .  A
C1419      C1482   1.488       .  S
C1420      C1421   1.411       .  A
C1420      H1425   1.081       .  S
C1421      C1422   1.410       .  A
C1421      C1430   1.504       .  S
C1422      C1423   1.410       .  A
C1422      H1426   1.079       .  S
C1423      C1424   1.411       .  A
C1423      C1432   1.504       .  S
C1424      H1427   1.081       .  S
C1428      C1433   1.404       .  A
C1428      C1468   1.488       .  S
C1429      C1528   1.404       .  A
C1429      C1430   1.411       .  A
C1429      H1434   1.081       .  S
C1430      C1531   1.410       .  A
C1431      C1432   1.410       .  A
C1431      H1435   1.079       .  S
C1432      C1433   1.411       .  A
C1433      H1436   1.081       .  S
C1437      C1438   1.404       .  A
C1437      C1442   1.404       .  A
C1437      C1481   1.488       .  S
C1438      C1439   1.411       .  A
C1438      H1443   1.081       .  S
C1439      C1440   1.410       .  A
C1439      C1450   1.504       .  S
C1440      C1441   1.410       .  A
C1440      H1444   1.079       .  S
C1441      C1442   1.411       .  A
C1441      C1448   1.504       .  S
C1442      H1445   1.081       .  S
C1446      C1451   1.404       .  A
C1446      C1467   1.488       .  S
C1447      C1546   1.404       .  A
C1447      C1448   1.411       .  A
C1447      H1452   1.081       .  S
C1448      C1549   1.410       .  A
C1449      C1450   1.410       .  A
C1449      H1453   1.079       .  S
C1450      C1451   1.411       .  A
C1451      H1454   1.081       .  S
O1456      V1463   1.904       .  S
O1457      C1467   1.266       .  A
O1458      C1468   1.266       .  A
O1459      C1568   1.266       .  A
O1460      C1567   1.266       .  A
O1461      V1464   1.904       .  S
O1461      C1466   1.266       .  A
O1462      C1465   1.266       .  A
V1464      V1563   2.085       .  T
C1465      C1483   1.488       .  S
C1465      O1555   1.266       .  A
C1466      C1510   1.488       .  S
C1466      O1556   1.266       .  A
O1469      V1477   1.904       .  S
O1469      C1479   1.266       .  A
O1470      V1477   1.904       .  S
O1470      C1480   1.266       .  A
O1471      V1477   1.904       .  S
O1471      C1481   1.266       .  A
O1472      V1477   1.904       .  S
O1472      C1482   1.266       .  A
O1473      V1478   1.904       .  S
O1473      C1482   1.266       .  A
O1474      V1478   1.904       .  S
O1474      C1481   1.266       .  A
O1475      V1478   1.904       .  S
O1475      C1480   1.266       .  A
O1476      V1478   1.904       .  S
O1476      C1479   1.266       .  A
V1477      V1478   2.085       .  T
C1479      C1492   1.488       .  S
C1483      C1584   1.404       .  A
C1483      C1488   1.404       .  A
C1484      C1485   1.411       .  A
C1484      H1489   1.081       .  S
C1485      C1496   1.504       .  S
C1486      C1585   1.410       .  A
C1486      C1487   1.410       .  A
C1486      H1490   1.079       .  S
C1487      C1488   1.411       .  A
C1487      C1494   1.504       .  S
C1488      H1491   1.081       .  S
C1492      C1493   1.404       .  A
C1492      C1497   1.404       .  A
C1493      C1494   1.411       .  A
C1493      H1498   1.081       .  S
C1494      C1495   1.410       .  A
C1495      C1496   1.410       .  A
C1495      H1499   1.079       .  S
C1496      C1497   1.411       .  A
C1497      H1500   1.081       .  S
C1501      C1502   1.404       .  A
C1501      C1506   1.404       .  A
C1501      C1580   1.488       .  S
C1502      C1503   1.411       .  A
C1502      H1507   1.081       .  S
C1503      C1504   1.410       .  A
C1503      C1514   1.504       .  S
C1504      C1505   1.410       .  A
C1504      H1508   1.079       .  S
C1505      C1506   1.411       .  A
C1505      C1512   1.504       .  S
C1506      H1509   1.081       .  S
C1510      C1511   1.404       .  A
C1511      C1512   1.411       .  A
C1511      H1516   1.081       .  S
C1512      C1513   1.410       .  A
C1513      H1517   1.079       .  S
C1514      C1515   1.411       .  A
C1515      H1518   1.081       .  S
C1519      C1520   1.404       .  A
C1519      C1524   1.404       .  A
C1519      C1582   1.488       .  S
C1520      C1521   1.411       .  A
C1520      H1525   1.081       .  S
C1521      C1522   1.410       .  A
C1521      C1530   1.504       .  S
C1522      C1523   1.410       .  A
C1522      H1526   1.079       .  S
C1523      C1524   1.411       .  A
C1523      C1532   1.504       .  S
C1524      H1527   1.081       .  S
C1528      C1533   1.404       .  A
C1528      C1568   1.488       .  S
C1529      C1530   1.411       .  A
C1529      H1534   1.081       .  S
C1531      C1532   1.410       .  A
C1531      H1535   1.079       .  S
C1532      C1533   1.411       .  A
C1533      H1536   1.081       .  S
C1537      C1538   1.404       .  A
C1537      C1542   1.404       .  A
C1537      C1581   1.488       .  S
C1538      C1539   1.411       .  A
C1538      H1543   1.081       .  S
C1539      C1540   1.410       .  A
C1539      C1550   1.504       .  S
C1540      C1541   1.410       .  A
C1540      H1544   1.079       .  S
C1541      C1542   1.411       .  A
C1541      C1548   1.504       .  S
C1542      H1545   1.081       .  S
C1546      C1551   1.404       .  A
C1546      C1567   1.488       .  S
C1547      C1548   1.411       .  A
C1547      H1552   1.081       .  S
C1549      C1550   1.410       .  A
C1549      H1553   1.079       .  S
C1550      C1551   1.411       .  A
C1551      H1554   1.081       .  S
O1556      V1563   1.904       .  S
O1557      C1567   1.266       .  A
O1558      C1568   1.266       .  A
O1561      V1564   1.904       .  S
O1561      C1566   1.266   1_556  A
O1562      C1565   1.266   1_556  A
C1565      C1583   1.488       .  S
O1569      V1577   1.904       .  S
O1569      C1579   1.266       .  A
O1570      V1577   1.904       .  S
O1570      C1580   1.266       .  A
O1571      V1577   1.904       .  S
O1571      C1581   1.266       .  A
O1572      V1577   1.904       .  S
O1572      C1582   1.266       .  A
O1573      V1578   1.904       .  S
O1573      C1582   1.266       .  A
O1574      V1578   1.904       .  S
O1574      C1581   1.266       .  A
O1575      V1578   1.904       .  S
O1575      C1580   1.266       .  A
O1576      V1578   1.904       .  S
O1576      C1579   1.266       .  A
V1577      V1578   2.085       .  T
C1579      C1592   1.488       .  S
C1583      C1588   1.404   1_554  A
C1584      C1585   1.411       .  A
C1584      H1589   1.081       .  S
C1585      C1596   1.504       .  S
C1586      C1587   1.410   1_554  A
C1586      H1590   1.079       .  S
C1587      C1588   1.411       .  A
C1587      C1594   1.504       .  S
C1588      H1591   1.081       .  S
C1592      C1593   1.404       .  A
C1592      C1597   1.404       .  A
C1593      C1594   1.411       .  A
C1593      H1598   1.081       .  S
C1594      C1595   1.410       .  A
C1595      C1596   1.410       .  A
C1595      H1599   1.079       .  S
C1596      C1597   1.411       .  A
C1597      H1600   1.081       .  S
