geometry optimzed in LAMMPS
_audit_creation_date              2020-11-30 
_audit_creation_method            'lammps2cif' 
_symmetry_space_group_name_H-M    'P1' 
_symmetry_Int_Tables_number       1 
_symmetry_cell_setting            triclinic 
loop_ 
_symmetry_equiv_pos_as_xyz 
  x,y,z 
_cell_length_a                    55.202053826478526 
_cell_length_b                    55.19220623125861 
_cell_length_c                    54.56888140212074 
_cell_angle_alpha                 90.28117412416631 
_cell_angle_beta                  90.09602413770664 
_cell_angle_gamma                 89.8557257375849 
loop_ 
_atom_site_label 
_atom_site_type_symbol 
_atom_site_fract_x 
_atom_site_fract_y 
_atom_site_fract_z 
_atom_site_charge 
C1          C  0.73937517  0.30502348  0.12735899     0.03130
C2          C  0.75669315  0.31063441  0.14538681    -0.13020
C3          C  0.77401496  0.32861451  0.14137157     0.00630
C4          C  0.77447372  0.34082665  0.11899994    -0.11540
C5          C  0.75779653  0.33498922  0.10042578     0.03120
C6          C  0.74000365  0.31739452  0.10488337    -0.10970
H7          H  0.75653286  0.30123425  0.16277555     0.08720
H8          H  0.78824433  0.35442584  0.11596020     0.06250
H9          H  0.72631775  0.31377180  0.09111486     0.06090
C10         C  0.72669865  0.65806679  0.13478051     0.03130
C11         C  0.74010332  0.64561015  0.15303471    -0.13020
C12         C  0.76198368  0.63345042  0.14756380     0.00630
C13         C  0.76786801  0.62949182  0.12292600    -0.11540
C14         C  0.75310098  0.63841225  0.10406845     0.03120
C15         C  0.73395034  0.65418918  0.11002923    -0.10970
H16         H  0.73385754  0.64489711  0.17167017     0.08720
H17         H  0.78404552  0.61938201  0.11826975     0.06250
H18         H  0.72452892  0.66273425  0.09498933     0.06090
C19         C  0.72704017  0.65729800  0.86470439     0.03130
C20         C  0.73304000  0.65210782  0.88938329    -0.13020
C21         C  0.75114388  0.63514107  0.89512724     0.00630
C22         C  0.76517324  0.62521637  0.87608626    -0.11540
C23         C  0.76040540  0.63088710  0.85158007     0.03120
C24         C  0.74021806  0.64535975  0.84598146    -0.10970
H25         H  0.72333882  0.66076637  0.90424197     0.08720
H26         H  0.78020245  0.61326569  0.88025234     0.06250
H27         H  0.73541770  0.64782337  0.82695581     0.06090
C28         C  0.73546728  0.30738029  0.86816954     0.03130
C29         C  0.73732873  0.31830448  0.89147629    -0.13020
C30         C  0.75611658  0.33472911  0.89662684     0.00630
C31         C  0.77314236  0.34001721  0.87834734    -0.11540
C32         C  0.77201967  0.32849595  0.85551120     0.03120
C33         C  0.75342487  0.31197497  0.85059504    -0.10970
H34         H  0.72368703  0.31472356  0.90522989     0.08720
H35         H  0.78765852  0.35272665  0.88196616     0.06250
H36         H  0.75267075  0.30308895  0.83285748     0.06090
N37         N  0.76441136  0.60304833  0.04867890    -0.27290
N38         N  0.75581859  0.62288561  0.03818700    -0.35150
C39         C  0.75066728  0.63920137  0.05609729     0.01050
C40         C  0.75680488  0.62914051  0.07867988     0.07080
C41         C  0.76532730  0.60626707  0.07299513    -0.06020
H42         H  0.74302386  0.65696409  0.05294499     0.07750
H43         H  0.77092197  0.59238405  0.08576285     0.08950
Cu44       Cu  0.75229637  0.62622415  0.99971097     0.44170
Cu45       Cu  0.77332125  0.57072324  0.03167567     0.41990
Cu46       Cu  0.77299826  0.57039715  0.96882702     0.43880
N47         N  0.75488723  0.62182247  0.96124943    -0.34670
N48         N  0.76329049  0.60166132  0.95112111    -0.28930
C49         C  0.76356690  0.60386338  0.92672785    -0.05030
C50         C  0.75486461  0.62646059  0.92059420     0.07190
C51         C  0.74930925  0.63743173  0.94299628     0.00980
H52         H  0.76901407  0.58951491  0.91430861     0.08640
H53         H  0.74186167  0.65537748  0.94579991     0.07710
N54         N  0.77980991  0.53928198  0.98805704    -0.36120
N55         N  0.77988458  0.53924810  0.01219368    -0.28300
C56         C  0.78302935  0.51641647  0.02008498    -0.03540
C57         C  0.78497597  0.50144016  0.99973676     0.05070
C58         C  0.78288029  0.51655682  0.97972469     0.03160
H59         H  0.78293105  0.51104869  0.03912664     0.08270
H60         H  0.78262292  0.51136843  0.96057373     0.07100
N61         N  0.76639922  0.37418270  0.94929750    -0.27290
N62         N  0.75757832  0.35497562  0.96058376    -0.35150
C63         C  0.75198706  0.33802599  0.94362158     0.01050
C64         C  0.75785043  0.34700524  0.92069296     0.07080
C65         C  0.76692463  0.36992984  0.92508132    -0.06020
H66         H  0.74488636  0.32026107  0.94772994     0.07750
H67         H  0.77333794  0.38273420  0.91164617     0.08950
Cu68       Cu  0.75512959  0.35242291  0.99864356     0.44170
Cu69       Cu  0.77700774  0.40596718  0.96631369     0.41990
Cu70       Cu  0.77823343  0.40572136  0.03100636     0.43880
N71         N  0.75830164  0.35512748  0.03667270    -0.34670
N72         N  0.76749000  0.37427796  0.04796402    -0.28930
C73         C  0.76831267  0.37017220  0.07215120    -0.05030
C74         C  0.75909615  0.34736354  0.07652282     0.07190
C75         C  0.75283433  0.33832351  0.05360714     0.00980
H76         H  0.77509635  0.38299296  0.08555385     0.08640
H77         H  0.74556800  0.32057304  0.04946884     0.07710
N78         N  0.78387128  0.43671286  0.01098863    -0.36120
N79         N  0.78336763  0.43686972  0.98681091    -0.28300
C80         C  0.78482117  0.45987636  0.97901448    -0.03540
C81         C  0.78618749  0.47486821  0.99936603     0.05070
C82         C  0.78563711  0.45957978  0.01933196     0.03160
H83         H  0.78357252  0.46531810  0.96003368     0.08270
H84         H  0.78515190  0.46472202  0.03849184     0.07100
C85         C  0.83786188  0.35037772  0.22247847     0.03130
C86         C  0.84271061  0.33172103  0.23920304    -0.13020
C87         C  0.85921142  0.33518665  0.25834900     0.00630
C88         C  0.87069566  0.35760404  0.26122784    -0.11540
C89         C  0.86554833  0.37672927  0.24511098     0.03120
C90         C  0.84954734  0.37280860  0.22545622    -0.10970
H91         H  0.83375800  0.31435282  0.23726451     0.08720
H92         H  0.88310353  0.36022407  0.27640374     0.06250
H93         H  0.84649380  0.38707067  0.21225403     0.06090
C94         C  0.83112902  0.60529441  0.22448291     0.03130
C95         C  0.84040220  0.62494779  0.23836819    -0.13020
C96         C  0.85744592  0.62162170  0.25707320     0.00630
C97         C  0.86712921  0.59852303  0.26073244    -0.11540
C98         C  0.85905481  0.57858412  0.24694198     0.03120
C99         C  0.83994571  0.58182318  0.23002731    -0.10970
H100        H  0.83427411  0.64320301  0.23509921     0.08720
H101        H  0.88081710  0.59611743  0.27474411     0.06250
H102        H  0.83237658  0.56609470  0.22107958     0.06090
C103        C  0.19347550  0.34766396  0.22791151     0.03130
C104        C  0.18664878  0.32922168  0.24420592    -0.13020
C105        C  0.16662940  0.33207202  0.25975565     0.00630
C106        C  0.15507892  0.35470863  0.26093389    -0.11540
C107        C  0.16279018  0.37406239  0.24626747     0.03120
C108        C  0.18141490  0.37015263  0.22916279    -0.10970
H109        H  0.19642331  0.31218026  0.24411379     0.08720
H110        H  0.14008833  0.35722158  0.27345310     0.06250
H111        H  0.18593673  0.38435997  0.21638349     0.06090
C112        C  0.18539554  0.60440577  0.22282791     0.03130
C113        C  0.17379681  0.62426737  0.23438448    -0.13020
C114        C  0.15915085  0.62100646  0.25495528     0.00630
C115        C  0.15382611  0.59765778  0.26284750    -0.11540
C116        C  0.16386343  0.57736504  0.25099982     0.03120
C117        C  0.18102254  0.58097912  0.23229032    -0.10970
H118        H  0.17621685  0.64255993  0.22783460     0.08720
H119        H  0.14205279  0.59547778  0.27852339     0.06250
H120        H  0.19067652  0.56549553  0.22510232     0.06090
N121        N  0.89963547  0.52746925  0.25890019    -0.27290
N122        N  0.88059139  0.51559852  0.25036020    -0.35150
C123        C  0.86306487  0.53172667  0.24464983     0.01050
C124        C  0.87141654  0.55483858  0.25010122     0.07080
C125        C  0.89470476  0.55128019  0.25897742    -0.06020
H126        H  0.84546103  0.52691041  0.23740590     0.07750
H127        H  0.90744559  0.56502840  0.26477733     0.08950
Cu128      Cu  0.87926371  0.47792874  0.24779034     0.44170
Cu129      Cu  0.93209847  0.51175759  0.27012199     0.41990
Cu130      Cu  0.93188822  0.44761954  0.27384575     0.43880
N131        N  0.88298792  0.44042408  0.25029636    -0.34670
N132        N  0.90181673  0.42972100  0.26067207    -0.28930
C133        C  0.89858968  0.40562315  0.26027953    -0.05030
C134        C  0.87672838  0.40075359  0.24894041     0.07190
C135        C  0.86731447  0.42325546  0.24279555     0.00980
H136        H  0.91143624  0.39263435  0.26745357     0.08640
H137        H  0.85010945  0.42692110  0.23402434     0.07710
N138        N  0.96235913  0.46796804  0.28090434    -0.36120
N139        N  0.96277179  0.49183246  0.27939398    -0.28300
C140        C  0.98576067  0.49945692  0.28238363    -0.03540
C141        C  0.00040957  0.47929488  0.28573344     0.05070
C142        C  0.98492724  0.45969160  0.28475864     0.03160
H143        H  0.99153880  0.51809472  0.28079686     0.08270
H144        H  0.98982444  0.44071885  0.28545436     0.07100
N145        N  0.12531310  0.42702474  0.25967087    -0.27290
N146        N  0.14518662  0.43790211  0.25189581    -0.35150
C147        C  0.16133048  0.42079004  0.24503669     0.01050
C148        C  0.15113569  0.39815090  0.24887804     0.07080
C149        C  0.12830014  0.40293393  0.25812048    -0.06020
H150        H  0.17948372  0.42453934  0.23867513     0.07750
H151        H  0.11478855  0.38989563  0.26360250     0.08950
Cu152      Cu  0.14990127  0.47550380  0.25260610     0.44170
Cu153      Cu  0.09453247  0.44427103  0.27259089     0.41990
Cu154      Cu  0.09757325  0.50737337  0.27868699     0.43880
N155        N  0.14819570  0.51304667  0.25783429    -0.34670
N156        N  0.12941410  0.52388013  0.26820418    -0.28930
C157        C  0.13293237  0.54786626  0.26833220    -0.05030
C158        C  0.15496408  0.55281210  0.25740897     0.07190
C159        C  0.16417197  0.53018552  0.25088628     0.00980
H160        H  0.11949569  0.56080626  0.27451435     0.08640
H161        H  0.18081532  0.52645329  0.24112928     0.07710
N162        N  0.06557963  0.48875800  0.28362615    -0.36120
N163        N  0.06455849  0.46494824  0.28169658    -0.28300
C164        C  0.04135766  0.45787744  0.28345633    -0.03540
C165        C  0.02704843  0.47832344  0.28637650     0.05070
C166        C  0.04301522  0.49761315  0.28645499     0.03160
H167        H  0.03526094  0.43939053  0.28116715     0.08270
H168        H  0.03850445  0.51668741  0.28721244     0.07100
C169        C  0.29188531  0.64417991  0.13075721     0.03130
C170        C  0.27507545  0.63818464  0.14903994    -0.13020
C171        C  0.25446472  0.62416786  0.14379285     0.00630
C172        C  0.25226830  0.61407393  0.12014362    -0.11540
C173        C  0.27014473  0.61787601  0.10222576     0.03120
C174        C  0.28982711  0.63306019  0.10760625    -0.10970
H175        H  0.27774191  0.64513473  0.16737769     0.08720
H176        H  0.23644581  0.60350201  0.11539962     0.06250
H177        H  0.30357669  0.63612554  0.09385193     0.06090
C178        C  0.29093488  0.30007314  0.13093810     0.03130
C179        C  0.27826805  0.31062967  0.15077636    -0.13020
C180        C  0.25708960  0.32391277  0.14693793     0.00630
C181        C  0.24981117  0.32933076  0.12311876    -0.11540
C182        C  0.26272635  0.32021610  0.10291754     0.03120
C183        C  0.28227113  0.30430868  0.10696939    -0.10970
H184        H  0.28424706  0.30801593  0.16947108     0.08720
H185        H  0.23358746  0.34007858  0.12046510     0.06250
H186        H  0.29086573  0.29563227  0.09147100     0.06090
C187        C  0.29140562  0.29945657  0.86790934     0.03130
C188        C  0.27584518  0.30650762  0.84868872    -0.13020
C189        C  0.25418327  0.31920476  0.85341439     0.00630
C190        C  0.24893067  0.32570074  0.87772235    -0.11540
C191        C  0.26516820  0.32063898  0.89680673     0.03120
C192        C  0.28638710  0.30759015  0.89182815    -0.10970
H193        H  0.28049722  0.30180889  0.83003306     0.08720
H194        H  0.23204774  0.33483769  0.88190621     0.06250
H195        H  0.29913052  0.30405424  0.90648855     0.06090
C196        C  0.28864601  0.64821953  0.87133641     0.03130
C197        C  0.27121972  0.64272671  0.85339186    -0.13020
C198        C  0.25422760  0.62438215  0.85707972     0.00630
C199        C  0.25409271  0.61173503  0.87928138    -0.11540
C200        C  0.27094433  0.61733989  0.89786794     0.03120
C201        C  0.28847940  0.63531248  0.89355496    -0.10970
H202        H  0.27100680  0.65260351  0.83627230     0.08720
H203        H  0.24049213  0.59793646  0.88215154     0.06250
H204        H  0.30215660  0.63901520  0.90730708     0.06090
N205        N  0.25900091  0.57881569  0.04936385    -0.27290
N206        N  0.26928497  0.59734150  0.03817205    -0.35150
C207        C  0.27528708  0.61410350  0.05521747     0.01050
C208        C  0.26808957  0.60574790  0.07804656     0.07080
C209        C  0.25788496  0.58334790  0.07352014    -0.06020
H210        H  0.28362916  0.63134934  0.05122709     0.07750
H211        H  0.25031847  0.57107139  0.08684433     0.08950
Cu212      Cu  0.27294212  0.59928346  0.99996296     0.44170
Cu213      Cu  0.24688240  0.54764773  0.03231793     0.41990
Cu214      Cu  0.24835351  0.54678938  0.96737589     0.43880
N215        N  0.27047237  0.59657133  0.96166764    -0.34670
N216        N  0.26094786  0.57764086  0.95026297    -0.28930
C217        C  0.26026581  0.58188937  0.92605765    -0.05030
C218        C  0.26989857  0.60457663  0.92172615     0.07190
C219        C  0.27629799  0.61333856  0.94476430     0.00980
H220        H  0.25298658  0.56937486  0.91262863     0.08640
H221        H  0.28368105  0.63101440  0.94902198     0.07710
N222        N  0.23800072  0.51716098  0.98784020    -0.36120
N223        N  0.23751562  0.51745505  0.01202462    -0.28300
C224        C  0.23201235  0.49519262  0.02016049    -0.03540
C225        C  0.22891271  0.48018210  0.00004255     0.05070
C226        C  0.23277743  0.49470996  0.97984644     0.03160
H227        H  0.23141907  0.49011595  0.03927381     0.08270
H228        H  0.23292892  0.48916174  0.96079553     0.07100
N229        N  0.24436158  0.35313666  0.04841406    -0.27290
N230        N  0.25520923  0.33448721  0.03773776    -0.35150
C231        C  0.26285448  0.31911353  0.05531371     0.01050
C232        C  0.25626952  0.32859940  0.07800487     0.07080
C233        C  0.24461010  0.35011916  0.07271307    -0.06020
H234        H  0.27291818  0.30262211  0.05181762     0.07750
H235        H  0.23801589  0.36352995  0.08562129     0.08950
Cu236      Cu  0.25965090  0.33175008  0.99981356     0.44170
Cu237      Cu  0.23237564  0.38425323  0.03152425     0.41990
Cu238      Cu  0.23336521  0.38447897  0.96833158     0.43880
N239        N  0.25780565  0.33562001  0.96179507    -0.34670
N240        N  0.24717190  0.35430191  0.95109147    -0.28930
C241        C  0.24815447  0.35152832  0.92674402    -0.05030
C242        C  0.26008553  0.33015563  0.92156630     0.07190
C243        C  0.26612567  0.32048390  0.94420708     0.00980
H244        H  0.24121533  0.36456545  0.91375133     0.08640
H245        H  0.27555243  0.30363459  0.94763600     0.07710
N246        N  0.22670994  0.41560916  0.98798297    -0.36120
N247        N  0.22650117  0.41564946  0.01212716    -0.28300
C248        C  0.22577597  0.43866463  0.02026220    -0.03540
C249        C  0.22563568  0.45378707  0.00009812     0.05070
C250        C  0.22611702  0.43854401  0.97992156     0.03160
H251        H  0.22713362  0.44396713  0.03933544     0.08270
H252        H  0.22784119  0.44370427  0.96090276     0.07100
C253        C  0.63264385  0.76192004  0.82444220     0.03130
C254        C  0.65118431  0.74524031  0.82995284    -0.13020
C255        C  0.64648950  0.72377646  0.84299897     0.00630
C256        C  0.62236678  0.71908034  0.84983136    -0.11540
C257        C  0.60402713  0.73647464  0.84639343     0.03120
C258        C  0.60935653  0.75792266  0.83392339    -0.10970
H259        H  0.66938941  0.74911424  0.82391409     0.08720
H260        H  0.61772634  0.70194519  0.85808447     0.06250
H261        H  0.59541695  0.77158566  0.83177652     0.06090
C262        C  0.36977872  0.75855406  0.82431473     0.03130
C263        C  0.35261276  0.74094600  0.83061043    -0.13020
C264        C  0.35913687  0.72143717  0.84558635     0.00630
C265        C  0.38274190  0.71998639  0.85484890    -0.11540
C266        C  0.40014056  0.73758461  0.84889304     0.03120
C267        C  0.39357703  0.75680075  0.83341063    -0.10970
H268        H  0.33423671  0.74233327  0.82370596     0.08720
H269        H  0.38755557  0.70490045  0.86652848     0.06250
H270        H  0.40674140  0.77055640  0.82876804     0.06090
C271        C  0.63072158  0.76117875  0.17533851     0.03130
C272        C  0.60715354  0.75631482  0.16720570    -0.13020
C273        C  0.60264326  0.73634649  0.15193124     0.00630
C274        C  0.62169902  0.72044189  0.14598698    -0.11540
C275        C  0.64552135  0.72524065  0.15357615     0.03120
C276        C  0.64984065  0.74596388  0.16810724    -0.10970
H277        H  0.59256408  0.76854333  0.17217182     0.08720
H278        H  0.61786257  0.70409788  0.13565673     0.06250
H279        H  0.66804406  0.75011838  0.17423510     0.06090
C280        C  0.37163902  0.75570227  0.17825142     0.03130
C281        C  0.35554726  0.73655111  0.17311743    -0.13020
C282        C  0.36171819  0.71853405  0.15601244     0.00630
C283        C  0.38414106  0.71939556  0.14425576    -0.11540
C284        C  0.40062903  0.73800016  0.14947528     0.03120
C285        C  0.39414449  0.75633092  0.16611675    -0.10970
H286        H  0.33813418  0.73574417  0.18220777     0.08720
H287        H  0.38885888  0.70517291  0.13134465     0.06250
H288        H  0.40639928  0.77134132  0.16916093     0.06090
N289        N  0.55118716  0.72299464  0.88363640    -0.27290
N290        N  0.54024329  0.73382435  0.86503689    -0.35150
C291        C  0.55728572  0.74025606  0.84858790     0.01050
C292        C  0.57977141  0.73269896  0.85718759     0.07080
C293        C  0.57509223  0.72187438  0.87938971    -0.06020
H294        H  0.55359267  0.74957288  0.83158702     0.07750
H295        H  0.58823065  0.71443471  0.89203699     0.08950
Cu296      Cu  0.50243823  0.73845752  0.86266788     0.44170
Cu297      Cu  0.53487089  0.71155384  0.91549866     0.41990
Cu298      Cu  0.47173717  0.71457442  0.91630475     0.43880
N299        N  0.46453190  0.73632352  0.86608372    -0.34670
N300        N  0.45411373  0.72682193  0.88559986    -0.28930
C301        C  0.43006635  0.72629330  0.88242334    -0.05030
C302        C  0.42466075  0.73597723  0.85981841     0.07190
C303        C  0.44695896  0.74235410  0.84990736     0.00980
H304        H  0.41742627  0.71928792  0.89574108     0.08640
H305        H  0.45019305  0.74999682  0.83199716     0.07710
N306        N  0.49143812  0.70572036  0.94690127    -0.36120
N307        N  0.51529937  0.70469885  0.94681112    -0.28300
C308        C  0.52325146  0.70144440  0.96986091    -0.03540
C309        C  0.50326248  0.70042983  0.98508292     0.05070
C310        C  0.48339621  0.70310512  0.96990898     0.03160
H311        H  0.54211577  0.70133484  0.97525488     0.08270
H312        H  0.46460486  0.70459932  0.97530232     0.07100
N313        N  0.55012564  0.72364291  0.11389880    -0.27290
N314        N  0.53915050  0.73421330  0.13266985    -0.35150
C315        C  0.55602364  0.74015523  0.14953311     0.01050
C316        C  0.57849127  0.73264976  0.14094302     0.07080
C317        C  0.57395654  0.72233232  0.11834097    -0.06020
H318        H  0.55220101  0.74923683  0.16672363     0.07750
H319        H  0.58712444  0.71514525  0.10553773     0.08950
Cu320      Cu  0.50170787  0.73953746  0.13449439     0.44170
Cu321      Cu  0.53393908  0.71261909  0.08178223     0.41990
Cu322      Cu  0.47081339  0.71642325  0.08013048     0.43880
N323        N  0.46408089  0.73828831  0.13056459    -0.34670
N324        N  0.45340648  0.72921779  0.11085230    -0.28930
C325        C  0.42940077  0.72875259  0.11428852    -0.05030
C326        C  0.42444557  0.73801341  0.13725989     0.07190
C327        C  0.44684420  0.74404860  0.14711198     0.00980
H328        H  0.41654474  0.72157336  0.10115029     0.08640
H329        H  0.45042260  0.75081132  0.16541238     0.07710
N330        N  0.49078351  0.70678002  0.04987216    -0.36120
N331        N  0.51463087  0.70553259  0.05033392    -0.28300
C332        C  0.52285686  0.70179305  0.02746158    -0.03540
C333        C  0.50306929  0.70067670  0.01192985     0.05070
C334        C  0.48302104  0.70379933  0.02675437     0.03160
H335        H  0.54178782  0.70139753  0.02239421     0.08270
H336        H  0.46431537  0.70536081  0.02103318     0.07100
C337        C  0.32832759  0.10916601  0.72284290     0.03130
C338        C  0.33603123  0.12823718  0.73817470    -0.13020
C339        C  0.35277687  0.12398801  0.75696730     0.00630
C340        C  0.36171154  0.10059776  0.76069758    -0.11540
C341        C  0.35445469  0.08135007  0.74547084     0.03120
C342        C  0.33810238  0.08585590  0.72630673    -0.10970
H343        H  0.32876054  0.14632750  0.73577597     0.08720
H344        H  0.37419434  0.09752145  0.77569492     0.06250
H345        H  0.33321963  0.07131919  0.71387007     0.06090
C346        C  0.68002026  0.11133843  0.72138816     0.03130
C347        C  0.66953863  0.13109837  0.73374692    -0.13020
C348        C  0.65417795  0.12752728  0.75359600     0.00630
C349        C  0.64515481  0.10442847  0.75837188    -0.11540
C350        C  0.65299548  0.08447351  0.74439116     0.03120
C351        C  0.67142679  0.08783817  0.72688597    -0.10970
H352        H  0.67399815  0.14948995  0.72879987     0.08720
H353        H  0.63266595  0.10199743  0.77344008     0.06250
H354        H  0.67870831  0.07218725  0.71745393     0.06090
C355        C  0.67953283  0.85377336  0.72448922     0.03130
C356        C  0.67486620  0.83682744  0.74300851    -0.13020
C357        C  0.65804204  0.84198278  0.76144734     0.00630
C358        C  0.64670471  0.86463336  0.76216717    -0.11540
C359        C  0.65234356  0.88237006  0.74472833     0.03120
C360        C  0.66867163  0.87681467  0.72584433    -0.10970
H361        H  0.68373709  0.81929151  0.74268543     0.08720
H362        H  0.63380102  0.86847205  0.77661897     0.06250
H363        H  0.67224921  0.89008898  0.71176084     0.06090
C364        C  0.31700110  0.85333734  0.72737834     0.03130
C365        C  0.32110401  0.83563251  0.74540473    -0.13020
C366        C  0.33933718  0.83861428  0.76314600     0.00630
C367        C  0.35253009  0.86031591  0.76365715    -0.11540
C368        C  0.34718907  0.87914381  0.74726182     0.03120
C369        C  0.32957984  0.87543812  0.72900724    -0.10970
H370        H  0.31063188  0.81906319  0.74514091     0.08720
H371        H  0.36691690  0.86254926  0.77697413     0.06250
H372        H  0.32638601  0.88938826  0.71548806     0.06090
N373        N  0.61424707  0.03236062  0.75648017    -0.27290
N374        N  0.63349541  0.02105769  0.74751419    -0.35150
C375        C  0.65048495  0.03767501  0.74203326     0.01050
C376        C  0.64157544  0.06047151  0.74804792     0.07080
C377        C  0.61856696  0.05627819  0.75711124    -0.06020
H378        H  0.66803659  0.03340010  0.73434190     0.07750
H379        H  0.60553042  0.06969779  0.76314060     0.08950
Cu380      Cu  0.63620412  0.98350770  0.74358823     0.44170
Cu381      Cu  0.58201360  0.01600983  0.76684164     0.41990
Cu382      Cu  0.58358278  0.95236794  0.76685968     0.43880
N383        N  0.63342584  0.94587897  0.74564131    -0.34670
N384        N  0.61422291  0.93508179  0.75496449    -0.28930
C385        C  0.61789103  0.91111219  0.75553198    -0.05030
C386        C  0.64052971  0.90631581  0.74604433     0.07190
C387        C  0.64992149  0.92876024  0.73977462     0.00980
H388        H  0.60495608  0.89817557  0.76248721     0.08640
H389        H  0.66771357  0.93243379  0.73240846     0.07710
N390        N  0.55272149  0.97136135  0.77481551    -0.36120
N391        N  0.55173673  0.99524268  0.77474767    -0.28300
C392        C  0.52863588  0.00219745  0.77841174    -0.03540
C393        C  0.51459656  0.98153479  0.78074295     0.05070
C394        C  0.53047974  0.96235296  0.77841299     0.03160
H395        H  0.52239151  0.02078553  0.77815992     0.08270
H396        H  0.52610440  0.94325848  0.77817309     0.07100
N397        N  0.38828783  0.92990132  0.75782853    -0.27290
N398        N  0.36920226  0.94164991  0.74914458    -0.35150
C399        C  0.35187938  0.92540127  0.74342849     0.01050
C400        C  0.36039286  0.90241447  0.74901520     0.07080
C401        C  0.38351538  0.90604679  0.75810792    -0.06020
H402        H  0.33409581  0.93006027  0.73652570     0.07750
H403        H  0.39604532  0.89237161  0.76451283     0.08950
Cu404      Cu  0.36673075  0.97937162  0.74708626     0.44170
Cu405      Cu  0.42039188  0.94589814  0.76921914     0.41990
Cu406      Cu  0.41821200  0.00938463  0.77497672     0.43880
N407        N  0.36985013  0.01693632  0.75057837    -0.34670
N408        N  0.38849793  0.02725201  0.76163662    -0.28930
C409        C  0.38580479  0.05134709  0.76139165    -0.05030
C410        C  0.36437362  0.05680388  0.74958630     0.07190
C411        C  0.35466293  0.03451274  0.74287837     0.00980
H412        H  0.39893905  0.06392685  0.76881105     0.08640
H413        H  0.33775949  0.03128693  0.73335710     0.07710
N414        N  0.44954860  0.99021145  0.78019497    -0.36120
N415        N  0.45066240  0.96643479  0.77783982    -0.28300
C416        C  0.47399378  0.95948725  0.77900970    -0.03540
C417        C  0.48809979  0.98002881  0.78202691     0.05070
C418        C  0.47199722  0.99916211  0.78277761     0.03160
H419        H  0.48027578  0.94109455  0.77625911     0.08270
H420        H  0.47629829  0.01826290  0.78356238     0.07100
C421        C  0.38487328  0.20148146  0.82029136     0.03130
C422        C  0.40827987  0.20338185  0.83040402    -0.13020
C423        C  0.41343175  0.22169544  0.84768553     0.00630
C424        C  0.39514945  0.23829283  0.85422632    -0.11540
C425        C  0.37214551  0.23684834  0.84360158     0.03120
C426        C  0.36701956  0.21836893  0.82684941    -0.10970
H427        H  0.42201835  0.19015149  0.82558131     0.08720
H428        H  0.39880901  0.25260479  0.86737285     0.06250
H429        H  0.34898388  0.21697565  0.81906639     0.06090
C430        C  0.64102555  0.20883350  0.81888695     0.03130
C431        C  0.66022466  0.22436311  0.82517712    -0.13020
C432        C  0.65723295  0.24196477  0.84354805     0.00630
C433        C  0.63476196  0.24444922  0.85524324    -0.11540
C434        C  0.61530884  0.22931066  0.84878022     0.03120
C435        C  0.61880564  0.21124330  0.83103476    -0.10970
H436        H  0.67754636  0.22259853  0.81601572     0.08720
H437        H  0.63243022  0.25846104  0.86901351     0.06250
H438        H  0.60432478  0.19865553  0.82692150     0.06090
C439        C  0.38602224  0.20020292  0.17766081     0.03130
C440        C  0.36707883  0.21345730  0.16668201    -0.13020
C441        C  0.37148095  0.23533794  0.15457595     0.00630
C442        C  0.39547221  0.24118412  0.14881309    -0.11540
C443        C  0.41472674  0.22638780  0.15652269     0.03120
C444        C  0.41009854  0.20718609  0.17268175    -0.10970
H445        H  0.34854216  0.20745950  0.16871646     0.08720
H446        H  0.39935902  0.25740335  0.13848649     0.06250
H447        H  0.42516939  0.19752623  0.18072432     0.06090
C448        C  0.64544436  0.20800770  0.17787624     0.03130
C449        C  0.62171275  0.21530621  0.17156288    -0.13020
C450        C  0.61767112  0.23331394  0.15395744     0.00630
C451        C  0.63745551  0.24622814  0.14471456    -0.11540
C452        C  0.66100988  0.24020881  0.15179638     0.03120
C453        C  0.66501120  0.22006935  0.16674901    -0.10970
H454        H  0.60624999  0.20662861  0.17981648     0.08720
H455        H  0.63460272  0.26139123  0.13250674     0.06250
H456        H  0.68347099  0.21435833  0.16995445     0.06090
N457        N  0.46536476  0.23202978  0.88749357    -0.27290
N458        N  0.47681932  0.22466912  0.86753158    -0.35150
C459        C  0.46019017  0.21895354  0.85027759     0.01050
C460        C  0.43730850  0.22328411  0.85991817     0.07080
C461        C  0.44141624  0.23147411  0.88351416    -0.06020
H462        H  0.46444085  0.21309818  0.83182018     0.07750
H463        H  0.42795667  0.23691488  0.89686250     0.08950
Cu464      Cu  0.51456926  0.22514288  0.86488775     0.44170
Cu465      Cu  0.48187398  0.24331040  0.91948933     0.41990
Cu466      Cu  0.54533141  0.25117991  0.91888983     0.43880
N467        N  0.55188640  0.23073561  0.86793344    -0.34670
N468        N  0.56256304  0.24082158  0.88714984    -0.28930
C469        C  0.58652161  0.24205632  0.88322623    -0.05030
C470        C  0.59136547  0.23215824  0.86048598     0.07190
C471        C  0.56897704  0.22515915  0.85128064     0.00980
H472        H  0.59947296  0.24910512  0.89633178     0.08640
H473        H  0.56530218  0.21679419  0.83368742     0.07710
N474        N  0.52505029  0.25557167  0.95015018    -0.36120
N475        N  0.50135252  0.25253478  0.95040817    -0.28300
C476        C  0.49341767  0.25413575  0.97360989    -0.03540
C477        C  0.51318913  0.25825295  0.98862873     0.05070
C478        C  0.53296320  0.25913308  0.97316907     0.03160
H479        H  0.47485525  0.25127197  0.97919009     0.08270
H480        H  0.55180056  0.26097631  0.97831779     0.07100
N481        N  0.46716800  0.23839069  0.11840547    -0.27290
N482        N  0.47850930  0.23127123  0.13849106    -0.35150
C483        C  0.46178726  0.22585410  0.15565266     0.01050
C484        C  0.43898549  0.23030507  0.14585127     0.07080
C485        C  0.44323642  0.23810263  0.12224978    -0.06020
H486        H  0.46592162  0.21947253  0.17389985     0.07750
H487        H  0.42983316  0.24265068  0.10851603     0.08950
Cu488      Cu  0.51621826  0.23082978  0.14114401     0.44170
Cu489      Cu  0.48340699  0.24734944  0.08571222     0.41990
Cu490      Cu  0.54642866  0.25307938  0.08521835     0.43880
N491        N  0.55342855  0.23639587  0.13758062    -0.34670
N492        N  0.56373391  0.24522732  0.11767096    -0.28930
C493        C  0.58774325  0.24642724  0.12106455    -0.05030
C494        C  0.59309983  0.23783859  0.14417063     0.07190
C495        C  0.57087059  0.23156690  0.15415942     0.00980
H496        H  0.60045183  0.25192901  0.10710208     0.08640
H497        H  0.56758119  0.22365866  0.17193263     0.07710
N498        N  0.52607849  0.25648245  0.05380594    -0.36120
N499        N  0.50230857  0.25419304  0.05400047    -0.28300
C500        C  0.49393044  0.25532099  0.03091819    -0.03540
C501        C  0.51349383  0.25844892  0.01548759     0.05070
C502        C  0.53362376  0.25915024  0.03058602     0.03160
H503        H  0.47514172  0.25307497  0.02574174     0.08270
H504        H  0.55238838  0.26045453  0.02509121     0.07100
C505        C  0.68053798  0.11023788  0.28061920     0.03130
C506        C  0.67458025  0.12951169  0.26511757    -0.13020
C507        C  0.66057428  0.12596506  0.24386072     0.00630
C508        C  0.65192352  0.10246456  0.23890707    -0.11540
C509        C  0.65547079  0.08356366  0.25568783     0.03120
C510        C  0.67020073  0.08741282  0.27631500    -0.10970
H511        H  0.68139105  0.14733649  0.26963599     0.08720
H512        H  0.64245531  0.09863876  0.22198067     0.06250
H513        H  0.67340539  0.07282992  0.28913276     0.06090
C514        C  0.33456057  0.10944083  0.28138333     0.03130
C515        C  0.33920346  0.08543567  0.27436016    -0.13020
C516        C  0.35285950  0.08058818  0.25328838     0.00630
C517        C  0.36008999  0.09987464  0.23834025    -0.11540
C518        C  0.35599291  0.12408695  0.24528113     0.03120
C519        C  0.34412931  0.12858978  0.26767404    -0.10970
H520        H  0.33246673  0.07072427  0.28548233     0.08720
H521        H  0.36886776  0.09585391  0.22107836     0.06250
H522        H  0.34157263  0.14693911  0.27424525     0.06090
C523        C  0.31866902  0.85170133  0.27455091     0.03130
C524        C  0.32510005  0.83260043  0.25875909    -0.13020
C525        C  0.34247300  0.83598545  0.24045343     0.00630
C526        C  0.35371443  0.85856409  0.23807109    -0.11540
C527        C  0.34730574  0.87801893  0.25348152     0.03120
C528        C  0.32963413  0.87449418  0.27166952    -0.10970
H529        H  0.31676533  0.81497099  0.26089198     0.08720
H530        H  0.36721101  0.86098242  0.22391187     0.06250
H531        H  0.32500959  0.88914316  0.28410658     0.06090
C532        C  0.67960572  0.85424835  0.27398864     0.03130
C533        C  0.66847912  0.83490780  0.26136730    -0.13020
C534        C  0.65211122  0.83933873  0.24233283     0.00630
C535        C  0.64424863  0.86295470  0.23789801    -0.11540
C536        C  0.65310858  0.88236550  0.25192844     0.03120
C537        C  0.67161401  0.87807402  0.26908684    -0.10970
H538        H  0.67312687  0.81634209  0.26558327     0.08720
H539        H  0.63127854  0.86608925  0.22333401     0.06250
H540        H  0.67947996  0.89327612  0.27877776     0.06090
N541        N  0.61483886  0.03289276  0.24350593    -0.27290
N542        N  0.63394883  0.02111594  0.25213999    -0.35150
C543        C  0.65140252  0.03722856  0.25773478     0.01050
C544        C  0.64306374  0.06015888  0.25197275     0.07080
C545        C  0.61985869  0.05671602  0.24300253    -0.06020
H546        H  0.66899067  0.03253703  0.26511813     0.07750
H547        H  0.60728322  0.07059166  0.23713214     0.08950
Cu548      Cu  0.63664871  0.98361709  0.25469098     0.44170
Cu549      Cu  0.58197575  0.01697566  0.23373404     0.41990
Cu550      Cu  0.58381334  0.95287806  0.23214191     0.43880
N551        N  0.63477716  0.94621021  0.25051675    -0.34670
N552        N  0.61538452  0.93545217  0.24143059    -0.28930
C553        C  0.61923109  0.91152565  0.24022790    -0.05030
C554        C  0.64224033  0.90670501  0.24898324     0.07190
C555        C  0.65160236  0.92917854  0.25550646     0.00980
H556        H  0.60584042  0.89856347  0.23407323     0.08640
H557        H  0.66928163  0.93292792  0.26319629     0.07710
N558        N  0.55241103  0.97206346  0.22659081    -0.36120
N559        N  0.55133905  0.99595797  0.22709358    -0.28300
C560        C  0.52804116  0.00281998  0.22446535    -0.03540
C561        C  0.51396373  0.98211298  0.22236423     0.05070
C562        C  0.53004040  0.96300053  0.22376641     0.03160
H563        H  0.52174835  0.02138914  0.22502912     0.08270
H564        H  0.52577677  0.94388010  0.22357129     0.07100
N565        N  0.38718636  0.92945123  0.24218350    -0.27290
N566        N  0.36763045  0.94102524  0.25005643    -0.35150
C567        C  0.35050180  0.92459748  0.25564782     0.01050
C568        C  0.35963478  0.90165115  0.25081519     0.07080
C569        C  0.38290107  0.90550549  0.24230182    -0.06020
H570        H  0.33253055  0.92907456  0.26215270     0.07750
H571        H  0.39595041  0.89187610  0.23679865     0.08950
Cu572      Cu  0.36441152  0.97866203  0.25147453     0.44170
Cu573      Cu  0.41951222  0.94573929  0.23190242     0.41990
Cu574      Cu  0.41650590  0.00871743  0.22470726     0.43880
N575        N  0.36691181  0.01602661  0.24680364    -0.34670
N576        N  0.38552547  0.02620299  0.23570513    -0.28930
C577        C  0.38259708  0.05025393  0.23556937    -0.05030
C578        C  0.36116124  0.05582807  0.24728705     0.07190
C579        C  0.35162423  0.03366281  0.25431704     0.00980
H580        H  0.39597276  0.06282771  0.22877725     0.08640
H581        H  0.33514553  0.03059592  0.26452576     0.07710
N582        N  0.44863740  0.99018509  0.22183574    -0.36120
N583        N  0.44998083  0.96648027  0.22453223    -0.28300
C584        C  0.47342913  0.95980048  0.22414561    -0.03540
C585        C  0.48740065  0.98043967  0.22129515     0.05070
C586        C  0.47106848  0.99936755  0.21986726     0.03160
H587        H  0.47984367  0.94149654  0.22700374     0.08270
H588        H  0.47515848  0.01847657  0.21860707     0.07100
C589        C  0.77636374  0.80177435  0.62974188     0.03130
C590        C  0.76375916  0.81234905  0.64959490    -0.13020
C591        C  0.74422962  0.82797551  0.64563859     0.00630
C592        C  0.73836474  0.83511001  0.62193784    -0.11540
C593        C  0.75109969  0.82572682  0.60183078     0.03120
C594        C  0.76888683  0.80782555  0.60573615    -0.10970
H595        H  0.76873652  0.80837933  0.66833529     0.08720
H596        H  0.72347661  0.84764748  0.61925160     0.06250
H597        H  0.77705042  0.79901777  0.59007861     0.06090
C598        C  0.77800771  0.80252271  0.36881234     0.03130
C599        C  0.76721044  0.81540550  0.34937440    -0.13020
C600        C  0.74585458  0.82899483  0.35291318     0.00630
C601        C  0.73737147  0.83201965  0.37692076    -0.11540
C602        C  0.75068837  0.82356724  0.39697951     0.03120
C603        C  0.77003733  0.80750076  0.39290503    -0.10970
H604        H  0.77499735  0.81406895  0.33124902     0.08720
H605        H  0.72036180  0.84115888  0.38029716     0.06250
H606        H  0.77893328  0.79928457  0.40845806     0.06090
C607        C  0.78715032  0.15068523  0.62946191     0.03130
C608        C  0.77098061  0.14473109  0.64833195    -0.13020
C609        C  0.74979515  0.13128661  0.64367258     0.00630
C610        C  0.74470165  0.12472355  0.61933887    -0.11540
C611        C  0.76149731  0.12877161  0.60058468     0.03120
C612        C  0.78244832  0.14227380  0.60557363    -0.10970
H613        H  0.77505708  0.15083920  0.66669502     0.08720
H614        H  0.72765484  0.11618393  0.61483119     0.06250
H615        H  0.79532115  0.14580963  0.59107614     0.06090
C616        C  0.78558344  0.15437263  0.37016712     0.03130
C617        C  0.78400234  0.14306590  0.39313424    -0.13020
C618        C  0.76550574  0.12622678  0.39771057     0.00630
C619        C  0.74867829  0.12092887  0.37918748    -0.11540
C620        C  0.74985496  0.13253997  0.35657339     0.03120
C621        C  0.76825731  0.14931496  0.35203855    -0.10970
H622        H  0.79739418  0.14702425  0.40712008     0.08720
H623        H  0.73414660  0.10819085  0.38243649     0.06250
H624        H  0.76934542  0.15806786  0.33434305     0.06090
N625        N  0.73656414  0.86075916  0.45027962    -0.27290
N626        N  0.74508176  0.84131652  0.46149084    -0.35150
C627        C  0.75086277  0.82443974  0.44449207     0.01050
C628        C  0.74532580  0.83365018  0.42155570     0.07080
C629        C  0.73636599  0.85668341  0.42606332    -0.06020
H630        H  0.75877493  0.80696839  0.44854656     0.07750
H631        H  0.73123406  0.87008649  0.41262295     0.08950
Cu632      Cu  0.74827759  0.83890822  0.49933861     0.44170
Cu633      Cu  0.72768790  0.89344250  0.46692828     0.41990
Cu634      Cu  0.72771208  0.89406007  0.53103601     0.43880
N635        N  0.74558970  0.84236838  0.53716278    -0.34670
N636        N  0.73730884  0.86212602  0.54813902    -0.28930
C637        C  0.73749666  0.85876869  0.57241991    -0.05030
C638        C  0.74636704  0.83581635  0.57722033     0.07190
C639        C  0.75145899  0.82592241  0.55438301     0.00980
H640        H  0.73240824  0.87253982  0.58563721     0.08640
H641        H  0.75895339  0.80818636  0.55051221     0.07710
N642        N  0.72246559  0.92526841  0.51099555    -0.36120
N643        N  0.72259621  0.92512054  0.48681890    -0.28300
C644        C  0.72127195  0.94807972  0.47875006    -0.03540
C645        C  0.72030589  0.96338705  0.49892557     0.05070
C646        C  0.72102097  0.94828199  0.51907422     0.03160
H647        H  0.72216330  0.95326431  0.45967916     0.08270
H648        H  0.72175291  0.95363846  0.53816751     0.07100
N649        N  0.75243554  0.08778718  0.44996797    -0.27290
N650        N  0.76226738  0.10652669  0.46138650    -0.35150
C651        C  0.76929670  0.12286407  0.44458984     0.01050
C652        C  0.76338910  0.11396211  0.42157152     0.07080
C653        C  0.75280124  0.09169237  0.42575990    -0.06020
H654        H  0.77714870  0.14032114  0.44889186     0.07750
H655        H  0.74561015  0.07922687  0.41223269     0.08950
Cu656      Cu  0.76363879  0.10963898  0.49924289     0.44170
Cu657      Cu  0.73841198  0.05752972  0.46687819     0.41990
Cu658      Cu  0.73539685  0.05873402  0.53144859     0.43880
N659        N  0.75862516  0.10831040  0.53686262    -0.34670
N660        N  0.74749493  0.09032264  0.54811666    -0.28930
C661        C  0.74645103  0.09526713  0.57218021    -0.05030
C662        C  0.75757889  0.11732190  0.57641267     0.07190
C663        C  0.76523709  0.12505147  0.55361746     0.00980
H664        H  0.73881785  0.08325623  0.58571250     0.08640
H665        H  0.77476355  0.14162622  0.54946467     0.07710
N666        N  0.72756365  0.02787072  0.51116343    -0.36120
N667        N  0.72850674  0.02758603  0.48699525    -0.28300
C668        C  0.72490128  0.00484510  0.47888256    -0.03540
C669        C  0.72167088  0.99002785  0.49897113     0.05070
C670        C  0.72338221  0.00524355  0.51916572     0.03160
H671        H  0.72597783  0.99932082  0.45985521     0.08270
H672        H  0.72292374  0.00007847  0.53825917     0.07100
C673        C  0.13496051  0.24987651  0.68100556     0.03130
C674        C  0.15444283  0.23706836  0.67036933    -0.13020
C675        C  0.15037663  0.21873101  0.65302382     0.00630
C676        C  0.12686974  0.21472285  0.64449612    -0.11540
C677        C  0.10729750  0.22816182  0.65363437     0.03120
C678        C  0.11127196  0.24497649  0.67258221    -0.10970
H679        H  0.17284649  0.24099052  0.67580333     0.08720
H680        H  0.12391219  0.20080304  0.63076532     0.06250
H681        H  0.09596035  0.25457463  0.68030417     0.06090
C682        C  0.13675269  0.25264831  0.32158455     0.03130
C683        C  0.15487406  0.23582542  0.32743324    -0.13020
C684        C  0.15010067  0.21697630  0.34372756     0.00630
C685        C  0.12705803  0.21481655  0.35406718    -0.11540
C686        C  0.10848240  0.23118540  0.34794133     0.03120
C687        C  0.11341439  0.25009635  0.33152402    -0.10970
H688        H  0.17289117  0.23778715  0.31981999     0.08720
H689        H  0.12362104  0.20010100  0.36664032     0.06250
H690        H  0.09946184  0.26319461  0.32704978     0.06090
C691        C  0.87860253  0.25385991  0.32168903     0.03130
C692        C  0.85972384  0.23813009  0.32819413    -0.13020
C693        C  0.86328044  0.22020419  0.34600912     0.00630
C694        C  0.88633425  0.21744118  0.35650600    -0.11540
C695        C  0.90561747  0.23255728  0.34971487     0.03120
C696        C  0.90150476  0.25097460  0.33257909    -0.10970
H697        H  0.84217891  0.23996974  0.31945883     0.08720
H698        H  0.88919714  0.20334818  0.36993715     0.06250
H699        H  0.91593737  0.26345211  0.32813019     0.06090
C700        C  0.87724673  0.25425838  0.67582561     0.03130
C701        C  0.85824094  0.23878559  0.66897943    -0.13020
C702        C  0.86256240  0.21945455  0.65281925     0.00630
C703        C  0.88577724  0.21580319  0.64332660    -0.11540
C704        C  0.90493493  0.23111479  0.65008904     0.03120
C705        C  0.90061963  0.25022558  0.66657552    -0.10970
H706        H  0.84022815  0.24167127  0.67632557     0.08720
H707        H  0.88890553  0.20068206  0.63098146     0.06250
H708        H  0.91519882  0.26232145  0.67178069     0.06090
N709        N  0.95805926  0.21649532  0.61363872    -0.27290
N710        N  0.96876275  0.22576351  0.63324920    -0.35150
C711        C  0.95158185  0.23266623  0.64935214     0.01050
C712        C  0.92912837  0.22722900  0.63936456     0.07080
C713        C  0.93400664  0.21703935  0.61676016    -0.06020
H714        H  0.95520308  0.24065692  0.66713208     0.07750
H715        H  0.92102659  0.21082682  0.60325177     0.08950
Cu716      Cu  0.00615965  0.22785182  0.63736366     0.44170
Cu717      Cu  0.97525650  0.20436919  0.58244849     0.41990
Cu718      Cu  0.03840793  0.20588346  0.58303485     0.43880
N719        N  0.04363334  0.22490525  0.63493234    -0.34670
N720        N  0.05473975  0.21648695  0.61519872    -0.28930
C721        C  0.07865751  0.21629845  0.61907870    -0.05030
C722        C  0.08312868  0.22496051  0.64243258     0.07190
C723        C  0.06046445  0.23041520  0.65199063     0.00980
H724        H  0.09181171  0.21068067  0.60550630     0.08640
H725        H  0.05644446  0.23762952  0.67000711     0.07710
N726        N  0.01924499  0.19775325  0.55177234    -0.36120
N727        N  0.99537630  0.19706673  0.55157095    -0.28300
C728        C  0.98763670  0.19389627  0.52844327    -0.03540
C729        C  0.00773504  0.19260145  0.51339992     0.05070
C730        C  0.02750377  0.19502614  0.52878991     0.03160
H731        H  0.96881787  0.19402439  0.52289099     0.08270
H732        H  0.04635751  0.19619264  0.52357653     0.07100
N733        N  0.05600922  0.21905177  0.38621186    -0.27290
N734        N  0.04489353  0.22850132  0.36699267    -0.35150
C735        C  0.06178660  0.23480037  0.35035370     0.01050
C736        C  0.08445176  0.22873189  0.35959010     0.07080
C737        C  0.07996309  0.21885933  0.38232429    -0.06020
H738        H  0.05782983  0.24261290  0.33264963     0.07750
H739        H  0.09315505  0.21213826  0.39531736     0.08950
Cu740      Cu  0.00716637  0.23105830  0.36428900     0.44170
Cu741      Cu  0.03944298  0.20691697  0.41763629     0.41990
Cu742      Cu  0.97594491  0.20594723  0.41764261     0.43880
N743        N  0.96951518  0.22839391  0.36760545    -0.34670
N744        N  0.95873687  0.21865745  0.38680214    -0.28930
C745        C  0.93468953  0.21884653  0.38338914    -0.05030
C746        C  0.92979868  0.22925879  0.36096372     0.07190
C747        C  0.95232969  0.23519666  0.35143180     0.00980
H748        H  0.92174832  0.21209880  0.39653950     0.08640
H749        H  0.95599740  0.24338762  0.33386134     0.07710
N750        N  0.99593600  0.19781659  0.44834225    -0.36120
N751        N  0.01981954  0.19829075  0.44842808    -0.28300
C752        C  0.02782554  0.19518405  0.47146071    -0.04020
C753        C  0.00788539  0.19272803  0.48654487     0.05070
C754        C  0.98795616  0.19438606  0.47128337     0.03160
H755        H  0.04663379  0.19616748  0.47695906     0.08270
H756        H  0.96909063  0.19466512  0.47660366     0.07100
C757        C  0.82716873  0.60294024  0.77444362     0.03130
C758        C  0.83238309  0.62157447  0.75794136    -0.13020
C759        C  0.85121971  0.61917198  0.74086450     0.00630
C760        C  0.86421509  0.59727959  0.73977099    -0.11540
C761        C  0.85865830  0.57792405  0.75547509     0.03120
C762        C  0.84005321  0.58094252  0.77294465    -0.10970
H763        H  0.82192375  0.63819761  0.75875546     0.08720
H764        H  0.87860786  0.59532194  0.72645173     0.06250
H765        H  0.83607557  0.56659770  0.78578119     0.06090
C766        C  0.83805323  0.35051116  0.77649829     0.03130
C767        C  0.84257688  0.33197116  0.75938622    -0.13020
C768        C  0.85863859  0.33548160  0.73995810     0.00630
C769        C  0.86997545  0.35796484  0.73711362    -0.11540
C770        C  0.86551728  0.37689808  0.75386095     0.03120
C771        C  0.85003805  0.37281914  0.77384520    -0.10970
H772        H  0.83347319  0.31467793  0.76103501     0.08720
H773        H  0.88203931  0.36066562  0.72174291     0.06250
H774        H  0.84754899  0.38691675  0.78747435     0.06090
C775        C  0.18708282  0.60650955  0.77712515     0.03130
C776        C  0.18092055  0.62536642  0.76088576    -0.13020
C777        C  0.16505245  0.62118904  0.74119377     0.00630
C778        C  0.15605765  0.59786277  0.73712816    -0.11540
C779        C  0.16266511  0.57862695  0.75247499     0.03120
C780        C  0.17806685  0.58306086  0.77246718    -0.10970
H781        H  0.18839807  0.64331463  0.76349095     0.08720
H782        H  0.14389822  0.59478415  0.72182909     0.06250
H783        H  0.18245099  0.56838687  0.78481819     0.06090
C784        C  0.18607578  0.34771377  0.77641998     0.03130
C785        C  0.17280890  0.32853714  0.76591259    -0.13020
C786        C  0.15981234  0.33146060  0.74400835     0.00630
C787        C  0.15718498  0.35496682  0.73468822    -0.11540
C788        C  0.16630115  0.37512739  0.74743864     0.03120
C789        C  0.18258388  0.37126941  0.76694308    -0.10970
H790        H  0.17350101  0.31084975  0.77434792     0.08720
H791        H  0.14789484  0.35781610  0.71750641     0.06250
H792        H  0.19218116  0.38654391  0.77463089     0.06090
N793        N  0.90114406  0.52796878  0.74393996    -0.27290
N794        N  0.88247481  0.51579032  0.75271613    -0.35150
C795        C  0.86479920  0.53160653  0.75886154     0.01050
C796        C  0.87257121  0.55486927  0.75350184     0.07080
C797        C  0.89572817  0.55175111  0.74409187    -0.06020
H798        H  0.84723090  0.52645363  0.76584340     0.07750
H799        H  0.90779757  0.56573545  0.73765010     0.08950
Cu800      Cu  0.88116893  0.47801302  0.75412265     0.44170
Cu801      Cu  0.93330762  0.51207959  0.73157073     0.41990
Cu802      Cu  0.93244873  0.44743508  0.72608859     0.43880
N803        N  0.88396588  0.44045140  0.75025824    -0.34670
N804        N  0.90232423  0.42965098  0.73910948    -0.28930
C805        C  0.89863819  0.40561034  0.73875633    -0.05030
C806        C  0.87696643  0.40085406  0.75041706     0.07190
C807        C  0.86815027  0.42339116  0.75752333     0.00980
H808        H  0.91109163  0.39255379  0.73091315     0.08640
H809        H  0.85126166  0.42716044  0.76684761     0.07710
N810        N  0.96303130  0.46773567  0.71952002    -0.36120
N811        N  0.96363646  0.49158602  0.72164861    -0.28300
C812        C  0.98667110  0.49901880  0.71871963    -0.03540
C813        C  0.00116584  0.47880040  0.71475625     0.05070
C814        C  0.98552571  0.45932340  0.71531220     0.03160
H815        H  0.99259570  0.51759891  0.72065187     0.08270
H816        H  0.99027212  0.44033031  0.71403631     0.07100
N817        N  0.12779476  0.52520213  0.73587664    -0.27290
N818        N  0.14709794  0.51447505  0.74530454    -0.35150
C819        C  0.16263131  0.53175449  0.75302229     0.01050
C820        C  0.15254086  0.55426038  0.74791870     0.07080
C821        C  0.13050268  0.54927923  0.73709264    -0.06020
H822        H  0.18008796  0.52820634  0.76131460     0.07750
H823        H  0.11706564  0.56218912  0.73093871     0.08950
Cu824      Cu  0.15110950  0.47679843  0.74622365     0.44170
Cu825      Cu  0.09734427  0.50798268  0.72304166     0.41990
Cu826      Cu  0.09724356  0.44468399  0.72223660     0.43880
N827        N  0.14900796  0.43921974  0.74154426    -0.34670
N828        N  0.12991558  0.42820295  0.73194456    -0.28930
C829        C  0.13404906  0.40424245  0.73147786    -0.05030
C830        C  0.15672148  0.39959765  0.74139146     0.07190
C831        C  0.16564144  0.42230106  0.74773903     0.00980
H832        H  0.12076443  0.39100536  0.72568713     0.08640
H833        H  0.18266888  0.42623021  0.75673871     0.07710
N834        N  0.06579418  0.46485703  0.71636108    -0.36120
N835        N  0.06619467  0.48875399  0.71649137    -0.28300
C836        C  0.04346345  0.49734943  0.71484499    -0.03540
C837        C  0.02783253  0.47788008  0.71363124     0.05070
C838        C  0.04260440  0.45749555  0.71453032     0.03160
H839        H  0.03864463  0.51633744  0.71585447     0.08270
H840        H  0.03685721  0.43878904  0.71521872     0.07100
C841        C  0.13034509  0.70152989  0.31700746     0.03130
C842        C  0.14637667  0.72099375  0.32072660    -0.13020
C843        C  0.14109419  0.73909684  0.33794210     0.00630
C844        C  0.11890640  0.73897784  0.35012363    -0.11540
C845        C  0.10192326  0.72068272  0.34552381     0.03120
C846        C  0.10768750  0.70192442  0.32896442    -0.10970
H847        H  0.16353963  0.72148422  0.31115504     0.08720
H848        H  0.11501727  0.75317677  0.36334470     0.06250
H849        H  0.09503123  0.68717816  0.32626378     0.06090
C850        C  0.13011484  0.69896956  0.67991114     0.03130
C851        C  0.14809888  0.71496940  0.67197162    -0.13020
C852        C  0.14212900  0.73614871  0.65904864     0.00630
C853        C  0.11765151  0.74051092  0.65367044    -0.11540
C854        C  0.09981993  0.72314534  0.65866303     0.03120
C855        C  0.10589105  0.70277395  0.67281041    -0.10970
H856        H  0.16680704  0.71082838  0.67627298     0.08720
H857        H  0.11233670  0.75726399  0.64497354     0.06250
H858        H  0.09218084  0.68958949  0.67751194     0.06090
C859        C  0.86974115  0.69700605  0.67270398     0.03130
C860        C  0.85050275  0.71196819  0.66546691    -0.13020
C861        C  0.85482354  0.73391437  0.65318381     0.00630
C862        C  0.87878719  0.73911238  0.64605145    -0.11540
C863        C  0.89789660  0.72305217  0.65119977     0.03120
C864        C  0.89338469  0.70241174  0.66533328    -0.10970
H865        H  0.83223430  0.70651341  0.66990592     0.08720
H866        H  0.88284849  0.75586327  0.63672593     0.06250
H867        H  0.90807737  0.69034325  0.67031409     0.06090
C868        C  0.87394476  0.70047071  0.32535696     0.03130
C869        C  0.85429174  0.71481041  0.33289918    -0.13020
C870        C  0.85791924  0.73580285  0.34731229     0.00630
C871        C  0.88181964  0.74182885  0.35400503    -0.11540
C872        C  0.90135834  0.72647132  0.34822512     0.03120
C873        C  0.89735402  0.70611795  0.33332025    -0.10970
H874        H  0.83624040  0.70941631  0.32739099     0.08720
H875        H  0.88539453  0.75858123  0.36369370     0.06250
H876        H  0.91227947  0.69437701  0.32819249     0.06090
N877        N  0.95141766  0.73786452  0.61535714    -0.27290
N878        N  0.96186808  0.72728015  0.63436326    -0.35150
C879        C  0.94456426  0.72063208  0.65034289     0.01050
C880        C  0.92225429  0.72763698  0.64104489     0.07080
C881        C  0.92736040  0.73849775  0.61887745    -0.06020
H882        H  0.94800362  0.71140710  0.66744696     0.07750
H883        H  0.91445635  0.74552682  0.60575638     0.08950
Cu884      Cu  0.99918789  0.72274268  0.63810213     0.44170
Cu885      Cu  0.96914515  0.74922210  0.58404872     0.41990
Cu886      Cu  0.03286526  0.74494226  0.58550323     0.43880
N887        N  0.03684678  0.72501836  0.63715346    -0.34670
N888        N  0.04855413  0.73413703  0.61820175    -0.28930
C889        C  0.07228213  0.73484994  0.62331668    -0.05030
C890        C  0.07596221  0.72563830  0.64654735     0.07190
C891        C  0.05308537  0.71932576  0.65478445     0.00980
H892        H  0.08596316  0.74131147  0.61079041     0.08640
H893        H  0.04852784  0.71173277  0.67241634     0.07710
N894        N  0.01401109  0.75307912  0.55375054    -0.36120
N895        N  0.99016960  0.75490703  0.55325790    -0.28300
C896        C  0.98284721  0.75812261  0.52997578    -0.03540
C897        C  0.00312240  0.75820908  0.51508553     0.05070
C898        C  0.02258579  0.75504590  0.53078845     0.03160
H899        H  0.96410842  0.75895200  0.52420877     0.08270
H900        H  0.04144682  0.75308134  0.52580151     0.07100
N901        N  0.95424280  0.74027232  0.38573998    -0.27290
N902        N  0.96490484  0.72931655  0.36701747    -0.35150
C903        C  0.94792913  0.72332620  0.35032867     0.01050
C904        C  0.92556710  0.73108757  0.35888314     0.07080
C905        C  0.93034128  0.74175515  0.38136204    -0.06020
H906        H  0.95160297  0.71372923  0.33339200     0.07750
H907        H  0.91724967  0.74898246  0.39422166     0.08950
Cu908      Cu  0.00198570  0.72271510  0.36509170     0.44170
Cu909      Cu  0.97156171  0.75050023  0.41783814     0.41990
Cu910      Cu  0.03536985  0.74234864  0.41920287     0.43880
N911        N  0.03958476  0.72211412  0.36767920    -0.34670
N912        N  0.05142138  0.73003585  0.38721782    -0.28930
C913        C  0.07526572  0.72969836  0.38257194    -0.05030
C914        C  0.07877717  0.72105161  0.35902063     0.07190
C915        C  0.05575823  0.71627070  0.35010895     0.00980
H916        H  0.08902335  0.73594055  0.39525314     0.08640
H917        H  0.05104528  0.71039299  0.33176382     0.07710
N918        N  0.01562991  0.75212569  0.44991233    -0.36120
N919        N  0.99189492  0.75512193  0.44942250    -0.28300
C920        C  0.98389634  0.75885168  0.47240477    -0.03540
C921        C  0.00359994  0.75813097  0.48810815     0.05070
C922        C  0.02344782  0.75394444  0.47320293     0.03160
H923        H  0.96502310  0.76065517  0.47740406     0.08270
H924        H  0.04198683  0.75106222  0.47895736     0.07100
C925        C  0.25203439  0.82889890  0.35264171     0.03130
C926        C  0.23212418  0.81442971  0.34669953    -0.13020
C927        C  0.21511577  0.80807685  0.36464727     0.00630
C928        C  0.21878224  0.81576439  0.38905324    -0.11540
C929        C  0.23893747  0.82996386  0.39532935     0.03120
C930        C  0.25543622  0.83657614  0.37687322    -0.10970
H931        H  0.23024435  0.80766419  0.32812568     0.08720
H932        H  0.20578355  0.81097915  0.40305345     0.06250
H933        H  0.27121307  0.84738325  0.38129330     0.06090
C934        C  0.24938493  0.83342231  0.64838367     0.03130
C935        C  0.22962917  0.81858047  0.65351780    -0.13020
C936        C  0.21749185  0.80608919  0.63464394     0.00630
C937        C  0.22337038  0.81159237  0.61007334    -0.11540
C938        C  0.24125891  0.82882907  0.60465645     0.03120
C939        C  0.25492730  0.83882558  0.62404552    -0.10970
H940        H  0.22463186  0.81591963  0.67246108     0.08720
H941        H  0.21404473  0.80264063  0.59514055     0.06250
H942        H  0.27026406  0.85042593  0.62035659     0.06090
C943        C  0.22865258  0.15283358  0.37048486     0.03130
C944        C  0.24692629  0.14825454  0.35318112    -0.13020
C945        C  0.26423085  0.13002341  0.35703158     0.00630
C946        C  0.26439866  0.11766686  0.37941671    -0.11540
C947        C  0.24705660  0.12290170  0.39752294     0.03120
C948        C  0.22881117  0.13995438  0.39264605    -0.10970
H949        H  0.24731659  0.15852412  0.33631897     0.08720
H950        H  0.27813448  0.10402086  0.38270416     0.06250
H951        H  0.21447832  0.14279132  0.40588244     0.06090
C952        C  0.22707475  0.15181297  0.62903893     0.03130
C953        C  0.24372253  0.14637381  0.64757284    -0.13020
C954        C  0.26207189  0.12938352  0.64337472     0.00630
C955        C  0.26380567  0.11786525  0.62052419    -0.11540
C956        C  0.24753332  0.12369101  0.60155329     0.03120
C957        C  0.22912992  0.14074286  0.60597167    -0.10970
H958        H  0.24218382  0.15509848  0.66534940     0.08720
H959        H  0.27825262  0.10489617  0.61744536     0.06250
H960        H  0.21611145  0.14505911  0.59176178     0.06090
N961        N  0.24371981  0.84294544  0.46149217    -0.27290
N962        N  0.25472955  0.86175969  0.45154954    -0.35150
C963        C  0.25443912  0.85978931  0.42712705     0.01050
C964        C  0.24266217  0.83875267  0.42076806     0.07080
C965        C  0.23588623  0.82844330  0.44303015    -0.06020
H966        H  0.26201536  0.87311935  0.41488977     0.07750
H967        H  0.22642012  0.81151383  0.44558138     0.08950
Cu968      Cu  0.26926490  0.89098099  0.46930702     0.44170
Cu969      Cu  0.24118678  0.83850781  0.49998641     0.41990
Cu970      Cu  0.26841663  0.89146689  0.53142322     0.43880
N971        N  0.27866455  0.92149098  0.48834803    -0.34670
N972        N  0.27820287  0.92178061  0.51244950    -0.28930
C973        C  0.28169636  0.94451967  0.52047622    -0.05030
C974        C  0.28437035  0.95920146  0.50020501     0.07190
C975        C  0.28242798  0.94401019  0.48010346     0.00980
H976        H  0.28057158  0.95013538  0.53947123     0.08640
H977        H  0.28197042  0.94912981  0.46099443     0.07710
N978        N  0.25579044  0.86117196  0.54864936    -0.36120
N979        N  0.24528401  0.84207478  0.53848490    -0.28300
C980        C  0.23857678  0.82696442  0.55674102    -0.03540
C981        C  0.24552046  0.83717179  0.57915840     0.05070
C982        C  0.25623011  0.85880559  0.57300137     0.03160
H983        H  0.22930586  0.80993437  0.55392210     0.08270
H984        H  0.26320077  0.87252029  0.58535068     0.07100
N985        N  0.25892260  0.08507840  0.54860492    -0.27290
N986        N  0.24890022  0.10382717  0.53746985    -0.35150
C987        C  0.24290220  0.12048576  0.55457245     0.01050
C988        C  0.24972470  0.11172857  0.57739218     0.07080
C989        C  0.25976488  0.08925545  0.57279833    -0.06020
H990        H  0.23475096  0.13787358  0.55062408     0.07750
H991        H  0.26701518  0.07665104  0.58604283     0.08950
Cu992      Cu  0.24522149  0.10600630  0.49941259     0.44170
Cu993      Cu  0.27091897  0.05406600  0.53161347     0.41990
Cu994      Cu  0.26965349  0.05311685  0.46715506     0.43880
N995        N  0.24758817  0.10288827  0.46129877    -0.34670
N996        N  0.25712780  0.08383572  0.45008458    -0.28930
C997        C  0.25774877  0.08779080  0.42587529    -0.05030
C998        C  0.24806066  0.11041162  0.42137882     0.07190
C999        C  0.24167355  0.11948501  0.44425120     0.00980
H1000       H  0.26501704  0.07512076  0.41257918     0.08640
H1001       H  0.23427545  0.13723277  0.44829077     0.07710
N1002       N  0.27867364  0.02318478  0.48750523    -0.36120
N1003       N  0.27906729  0.02354579  0.51166882    -0.28300
C1004       C  0.28257181  0.00096355  0.51996526    -0.03540
C1005       C  0.28441343  0.98568925  0.49993438     0.05070
C1006       C  0.28196914  0.00035203  0.47962599     0.03160
H1007       H  0.28220239  0.99590715  0.53909134     0.08270
H1008       H  0.28098433  0.99469703  0.46063173     0.07100
C1009       C  0.16143566  0.75374319  0.65181981    -0.06120
C1010       C  0.18141245  0.75695407  0.66751832    -0.17250
C1011       C  0.20074185  0.77195516  0.66130550     0.11080
C1012       C  0.19880902  0.78742358  0.64066371    -0.06050
C1013       C  0.17847336  0.78479944  0.62531807    -0.17280
C1014       C  0.16088643  0.76712290  0.62965141     0.11110
S1015       S  0.22801450  0.76811710  0.67923307    -0.32250
S1016       S  0.14005370  0.76125380  0.60481294    -0.32250
H1017       H  0.13914744  0.73608664  0.60868344     0.29120
H1018       H  0.24386125  0.77147672  0.65937387     0.29110
H1019       H  0.18265822  0.74695269  0.68447562     0.19700
H1020       H  0.17653853  0.79596589  0.60919216     0.19710
C1021       C  0.15970217  0.75681675  0.34510716    -0.06120
C1022       C  0.16353292  0.77702310  0.33020824    -0.17250
C1023       C  0.18035348  0.79485307  0.33679800     0.11080
C1024       C  0.19462506  0.79182223  0.35821975    -0.06050
C1025       C  0.19031710  0.77172709  0.37326056    -0.17280
C1026       C  0.17293286  0.75440283  0.36713550     0.11110
S1027       S  0.18165577  0.82148364  0.31778727    -0.32250
S1028       S  0.16864004  0.72984187  0.38845168    -0.32250
H1029       H  0.15870584  0.71297262  0.37204822     0.29120
H1030       H  0.18792393  0.83751039  0.33687726     0.29110
H1031       H  0.15283124  0.77925023  0.31369803     0.19700
H1032       H  0.20103125  0.76910531  0.38969537     0.19710
C1033       C  0.15686143  0.64128020  0.72527568    -0.06120
C1034       C  0.14216147  0.65948178  0.73548792    -0.17250
C1035       C  0.13258966  0.67810985  0.72100991     0.11080
C1036       C  0.13742855  0.67840739  0.69559114    -0.06050
C1037       C  0.15201903  0.66013086  0.68536612    -0.17280
C1038       C  0.16186038  0.64170773  0.69988677     0.11110
S1039       S  0.11468369  0.70109130  0.73614583    -0.32250
S1040       S  0.18109396  0.61965084  0.68502031    -0.32250
H1041       H  0.19589832  0.61505018  0.70547421     0.29120
H1042       H  0.12202217  0.72049686  0.72134834     0.29110
H1043       H  0.13809034  0.65914105  0.75490786     0.19700
H1044       H  0.15622996  0.66056637  0.66598091     0.19710
C1045       C  0.85704838  0.63931020  0.72377710    -0.06120
C1046       C  0.85958894  0.63407690  0.69862908    -0.17250
C1047       C  0.86377867  0.65242177  0.68150207     0.11080
C1048       C  0.86519213  0.67669197  0.68952711    -0.06050
C1049       C  0.86295811  0.68200384  0.71455160    -0.17280
C1050       C  0.85952685  0.66365716  0.73177976     0.11110
S1051       S  0.86724909  0.64364184  0.64981026    -0.32250
S1052       S  0.85998563  0.67254681  0.76364878    -0.32250
H1053       H  0.87098706  0.65112519  0.77206780     0.29120
H1054       H  0.85903836  0.66545132  0.63951608     0.29110
H1055       H  0.85784106  0.61556804  0.69216370     0.19700
H1056       H  0.86462215  0.70061150  0.72078695     0.19710
C1057       C  0.87262041  0.27482260  0.69252114    -0.06120
C1058       C  0.85988794  0.29494418  0.68353368    -0.17250
C1059       C  0.85518257  0.31508005  0.69849824     0.11080
C1060       C  0.86361877  0.31522313  0.72293956    -0.06050
C1061       C  0.87649538  0.29515298  0.73184777    -0.17280
C1062       C  0.88100298  0.27494722  0.71696624     0.11110
S1063       S  0.83812145  0.33977962  0.68543757    -0.32250
S1064       S  0.89735335  0.24989713  0.73028430    -0.32250
H1065       H  0.88615232  0.23158164  0.71635931     0.29120
H1066       H  0.82654907  0.34696726  0.70722423     0.29110
H1067       H  0.85348635  0.29489009  0.66474543     0.19700
H1068       H  0.88288232  0.29516367  0.75064207     0.19710
C1069       C  0.16947429  0.19989116  0.35056683    -0.06120
C1070       C  0.17998565  0.20203833  0.37386950    -0.17250
C1071       C  0.19969576  0.18756868  0.38073207     0.11080
C1072       C  0.20854296  0.16971164  0.36426950    -0.06050
C1073       C  0.19762136  0.16746435  0.34103955    -0.17280
C1074       C  0.17839511  0.18238995  0.33398580     0.11110
S1075       S  0.21353239  0.19403529  0.40999879    -0.32250
S1076       S  0.16608656  0.17819395  0.30360484    -0.32250
H1077       H  0.14231900  0.18548680  0.30923406     0.29120
H1078       H  0.23732687  0.18883378  0.40240633     0.29110
H1079       H  0.17336572  0.21578589  0.38645956     0.19700
H1080       H  0.20392821  0.15372402  0.32829432     0.19710
C1081       C  0.13951331  0.26926236  0.69973011    -0.06120
C1082       C  0.12517300  0.29040949  0.69951748    -0.17250
C1083       C  0.12965064  0.30974838  0.71556598     0.11080
C1084       C  0.15093943  0.30970565  0.73013468    -0.06050
C1085       C  0.16491346  0.28831304  0.73071950    -0.17280
C1086       C  0.15845392  0.26776380  0.71722831     0.11110
S1087       S  0.10639142  0.33269884  0.71765485    -0.32250
S1088       S  0.17407793  0.24001113  0.72488155    -0.32250
H1089       H  0.15432659  0.22481106  0.71950352     0.29120
H1090       H  0.11065441  0.33812416  0.74250918     0.29110
H1091       H  0.11008073  0.29201198  0.68695394     0.19700
H1092       H  0.18100811  0.28722995  0.74200819     0.19710
C1093       C  0.17010773  0.20214858  0.64524637    -0.06120
C1094       C  0.16614817  0.17710357  0.64754900    -0.17250
C1095       C  0.18427995  0.16028738  0.64208789     0.11080
C1096       C  0.20708282  0.16861510  0.63423322    -0.06050
C1097       C  0.21109003  0.19351196  0.63152759    -0.17280
C1098       C  0.19274814  0.21035638  0.63652101     0.11110
S1099       S  0.17696447  0.12858037  0.64538301    -0.32250
S1100       S  0.19912646  0.24176217  0.63036015    -0.32250
H1101       H  0.17522008  0.24806814  0.62407671     0.29120
H1102       H  0.20045786  0.12012791  0.65033215     0.29110
H1103       H  0.14888565  0.17056101  0.65420706     0.19700
H1104       H  0.22854371  0.19981594  0.62513528     0.19710
C1105       C  0.80575886  0.17091517  0.36461872    -0.06120
C1106       C  0.80145988  0.19594042  0.36514259    -0.17250
C1107       C  0.81997565  0.21246090  0.36004670     0.11080
C1108       C  0.84321738  0.20379534  0.35326663    -0.06050
C1109       C  0.84745551  0.17866233  0.35304773    -0.17280
C1110       C  0.82907490  0.16220051  0.35865384     0.11110
S1111       S  0.81298060  0.24421332  0.36375427    -0.32250
S1112       S  0.83655724  0.13035405  0.35774789    -0.32250
H1113       H  0.81354385  0.12202492  0.35068161     0.29120
H1114       H  0.83618166  0.25093060  0.37198545     0.29110
H1115       H  0.78364159  0.20265051  0.37007395     0.19700
H1116       H  0.86513855  0.17173462  0.34794854     0.19710
C1117       C  0.80812455  0.16685525  0.63463612    -0.06120
C1118       C  0.81197115  0.18682734  0.61920482    -0.17250
C1119       C  0.82945064  0.20436567  0.62472512     0.11080
C1120       C  0.84316289  0.20227471  0.64644582    -0.06050
C1121       C  0.83992873  0.18209764  0.66152074    -0.17280
C1122       C  0.82310374  0.16409813  0.65558458     0.11110
S1123       S  0.83362709  0.22862980  0.60309073    -0.32250
S1124       S  0.82285391  0.13752338  0.67472611    -0.32250
H1125       H  0.81566447  0.12142330  0.65603934     0.29120
H1126       H  0.84227136  0.24599405  0.61981685     0.29110
H1127       H  0.80084399  0.18916761  0.60300935     0.19700
H1128       H  0.85120801  0.17997403  0.67765493     0.19710
C1129       C  0.79769456  0.78433143  0.36382374    -0.06120
C1130       C  0.81698618  0.78178029  0.38052257    -0.17250
C1131       C  0.83554280  0.76476424  0.37676980     0.11080
C1132       C  0.83697043  0.75188716  0.35419654    -0.06050
C1133       C  0.81771018  0.75456510  0.33750990    -0.17280
C1134       C  0.79756929  0.76905570  0.34280444     0.11110
S1135       S  0.85517501  0.75903613  0.40259009    -0.32250
S1136       S  0.77164785  0.76508546  0.32299020    -0.32250
H1137       H  0.75441890  0.76794516  0.34176616     0.29120
H1138       H  0.85800904  0.73416470  0.39754457     0.29110
H1139       H  0.81743152  0.79260012  0.39710833     0.19700
H1140       H  0.81781704  0.74476607  0.32028345     0.19710
C1141       C  0.79656600  0.78408607  0.63463094    -0.06120
C1142       C  0.79511482  0.76936238  0.65560531    -0.17250
C1143       C  0.81445010  0.75484489  0.66319678     0.11080
C1144       C  0.83457012  0.75124781  0.64747123    -0.06050
C1145       C  0.83552745  0.76497826  0.62577860    -0.17280
C1146       C  0.81786871  0.78249194  0.62015979     0.11110
S1147       S  0.81309483  0.74415140  0.69438663    -0.32250
S1148       S  0.82446901  0.80397406  0.59611883    -0.32250
H1149       H  0.84790247  0.79565753  0.59040068     0.29120
H1150       H  0.83803732  0.74700233  0.69889318     0.29110
H1151       H  0.77923691  0.76999974  0.66718771     0.19700
H1152       H  0.85057755  0.76257699  0.61336397     0.19710
C1153       C  0.69894954  0.84947348  0.29264812    -0.06120
C1154       C  0.70017596  0.86402879  0.31387089    -0.17250
C1155       C  0.71719458  0.85952345  0.33244703     0.11080
C1156       C  0.73129556  0.83800345  0.33157302    -0.06050
C1157       C  0.73060318  0.82399333  0.30998591    -0.17280
C1158       C  0.71603637  0.83040623  0.29010572     0.11110
S1159       S  0.72187605  0.88251676  0.35575251    -0.32250
S1160       S  0.72178482  0.81452590  0.26168616    -0.32250
H1161       H  0.71619387  0.83438961  0.24661156     0.29120
H1162       H  0.70540857  0.89972910  0.34657146     0.29110
H1163       H  0.68781478  0.87908443  0.31606574     0.19700
H1164       H  0.74169239  0.80792287  0.30821773     0.19710
C1165       C  0.30156246  0.84703961  0.29489873    -0.06120
C1166       C  0.30746615  0.82873183  0.31169756    -0.17250
C1167       C  0.29175031  0.82257410  0.33073570     0.11080
C1168       C  0.26968458  0.83523751  0.33343433    -0.06050
C1169       C  0.26389576  0.85385863  0.31699610    -0.17280
C1170       C  0.27947101  0.85978226  0.29767367     0.11110
S1171       S  0.30087885  0.79831952  0.35082298    -0.32250
S1172       S  0.26967320  0.88305529  0.27676911    -0.32250
H1173       H  0.28019306  0.87264590  0.25574895     0.29120
H1174       H  0.27751469  0.78972562  0.35598366     0.29110
H1175       H  0.32439847  0.81892194  0.30976518     0.19700
H1176       H  0.24687284  0.86350040  0.31895506     0.19710
C1177       C  0.31735344  0.11459291  0.30133283    -0.06120
C1178       C  0.29272568  0.11546972  0.29521317    -0.17250
C1179       C  0.27503966  0.11950229  0.31303816     0.11080
C1180       C  0.28210103  0.12385598  0.33762899    -0.06050
C1181       C  0.30684564  0.12263938  0.34376280    -0.17280
C1182       C  0.32452287  0.11793978  0.32593967     0.11110
S1183       S  0.24385491  0.11747613  0.30325906    -0.32250
S1184       S  0.35562985  0.11591610  0.33599645    -0.32250
H1185       H  0.36673504  0.12039489  0.31336565     0.29120
H1186       H  0.23528538  0.10731068  0.32517434     0.29110
H1187       H  0.28719664  0.11237306  0.27638095     0.19700
H1188       H  0.31249839  0.12571225  0.36254527     0.19710
C1189       C  0.69779229  0.11454703  0.30105667    -0.06120
C1190       C  0.69412469  0.13488851  0.31625256    -0.17250
C1191       C  0.71085569  0.14126599  0.33437924     0.11080
C1192       C  0.73165585  0.12681697  0.33776524    -0.06050
C1193       C  0.73515760  0.10617687  0.32315672    -0.17280
C1194       C  0.71878437  0.10015087  0.30453376     0.11110
S1195       S  0.70491666  0.16840481  0.35199304    -0.32250
S1196       S  0.72670075  0.07492166  0.28497976    -0.32250
H1197       H  0.71883324  0.08591253  0.26315939     0.29120
H1198       H  0.71706037  0.16137578  0.37345042     0.29110
H1199       H  0.67816363  0.14609456  0.31380905     0.19700
H1200       H  0.75121576  0.09513835  0.32577641     0.19710
C1201       C  0.64947741  0.18741878  0.19532457    -0.06120
C1202       C  0.63233230  0.16854414  0.19630864    -0.17250
C1203       C  0.63432825  0.14964297  0.21317662     0.11080
C1204       C  0.65601792  0.14677380  0.22683319    -0.06050
C1205       C  0.67378289  0.16495462  0.22477493    -0.17280
C1206       C  0.66978191  0.18597964  0.21122495     0.11110
S1207       S  0.60735491  0.13186155  0.21788108    -0.32250
S1208       S  0.68982624  0.21097120  0.21785823    -0.32250
H1209       H  0.67155368  0.22869230  0.21610812     0.29120
H1210       H  0.61066287  0.12970472  0.24335346     0.29110
H1211       H  0.61651381  0.16879492  0.18460344     0.19700
H1212       H  0.69066832  0.16359857  0.23475596     0.19710
C1213       C  0.37976257  0.18048438  0.19539657    -0.06120
C1214       C  0.35923259  0.18384193  0.21034087    -0.17250
C1215       C  0.35028337  0.16557924  0.22533804     0.11080
C1216       C  0.36403820  0.14418909  0.22883514    -0.06050
C1217       C  0.38562128  0.14143682  0.21523353    -0.17280
C1218       C  0.39269660  0.15839206  0.19758415     0.11110
S1219       S  0.31995348  0.17011516  0.23684698    -0.32250
S1220       S  0.41673405  0.14928488  0.17716649    -0.32250
H1221       H  0.40635337  0.15999450  0.15628096     0.29120
H1222       H  0.31276213  0.14593108  0.23313302     0.29110
H1223       H  0.34900803  0.20054813  0.20948366     0.19700
H1224       H  0.39664617  0.12531764  0.21742596     0.19710
C1225       C  0.30016241  0.84846401  0.70648045    -0.06120
C1226       C  0.28343558  0.86645003  0.69933936    -0.17250
C1227       C  0.26678482  0.86241524  0.68026410     0.11080
C1228       C  0.26644210  0.83970250  0.66829344    -0.06050
C1229       C  0.28322589  0.82190898  0.67510960    -0.17280
C1230       C  0.30043307  0.82618914  0.69339163     0.11110
S1231       S  0.24681474  0.88700880  0.67203017    -0.32250
S1232       S  0.32311939  0.80297641  0.69765230    -0.32250
H1233       H  0.34216776  0.81919156  0.70252816     0.29120
H1234       H  0.22861249  0.87303823  0.66088996     0.29110
H1235       H  0.28309534  0.88370427  0.70888716     0.19700
H1236       H  0.28337833  0.80466467  0.66549045     0.19710
C1237       C  0.69552523  0.84730340  0.70362177    -0.06120
C1238       C  0.71383849  0.86355747  0.69668453    -0.17250
C1239       C  0.73012816  0.85781811  0.67789363     0.11080
C1240       C  0.72844957  0.83510566  0.66610583    -0.06050
C1241       C  0.71003319  0.81902927  0.67266479    -0.17280
C1242       C  0.69317443  0.82509400  0.69070596     0.11110
S1243       S  0.75220909  0.88036469  0.66957550    -0.32250
S1244       S  0.66827950  0.80439217  0.69497119    -0.32250
H1245       H  0.65101505  0.82245454  0.70027191     0.29120
H1246       H  0.76968694  0.86436007  0.66008435     0.29110
H1247       H  0.71568521  0.88074797  0.70617671     0.19700
H1248       H  0.70824274  0.80194267  0.66293901     0.19710
C1249       C  0.69934254  0.11556932  0.70257989    -0.06120
C1250       C  0.70128362  0.09984818  0.68230102    -0.17250
C1251       C  0.71902869  0.10310253  0.66434679     0.11080
C1252       C  0.73284675  0.12478448  0.66407481    -0.06050
C1253       C  0.73066567  0.14060060  0.68423306    -0.17280
C1254       C  0.71602418  0.13507853  0.70432025     0.11110
S1255       S  0.72440099  0.07762160  0.64419644    -0.32250
S1256       S  0.72128719  0.15161980  0.73261866    -0.32250
H1257       H  0.74104148  0.16556793  0.72467230     0.29120
H1258       H  0.74958253  0.08124719  0.64276340     0.29110
H1259       H  0.68950347  0.08430460  0.68061322     0.19700
H1260       H  0.74085487  0.15726001  0.68476988     0.19710
C1261       C  0.65027299  0.14762024  0.77091349    -0.06120
C1262       C  0.63057314  0.16321280  0.76738094    -0.17250
C1263       C  0.62770768  0.18399924  0.78188587     0.11080
C1264       C  0.64452524  0.18891029  0.80092745    -0.06050
C1265       C  0.66442429  0.17337732  0.80409315    -0.17280
C1266       C  0.66754000  0.15292437  0.78929583     0.11110
S1267       S  0.60300975  0.20407252  0.77424672    -0.32250
S1268       S  0.69434228  0.13479376  0.79442575    -0.32250
H1269       H  0.68449221  0.11247760  0.78714863     0.29120
H1270       H  0.61488096  0.22545971  0.78151413     0.29110
H1271       H  0.61781873  0.15958575  0.75269999     0.19700
H1272       H  0.67741645  0.17690502  0.81858280     0.19710
C1273       C  0.31082398  0.11394838  0.70267173    -0.06120
C1274       C  0.31463707  0.13424816  0.68769226    -0.17250
C1275       C  0.29920080  0.13950430  0.66809753     0.11080
C1276       C  0.27963596  0.12394197  0.66290769    -0.06050
C1277       C  0.27570384  0.10364667  0.67766027    -0.17280
C1278       C  0.29066193  0.09877876  0.69778613     0.11110
S1279       S  0.30513714  0.16662106  0.65078120    -0.32250
S1280       S  0.28186597  0.07403684  0.71731881    -0.32250
H1281       H  0.28936761  0.08520687  0.73927135     0.29120
H1282       H  0.29570356  0.15829934  0.62835556     0.29110
H1283       H  0.32994204  0.14605589  0.69111539     0.19700
H1284       H  0.26025823  0.09206704  0.67403659     0.19710
C1285       C  0.36068769  0.14387343  0.77322522    -0.06120
C1286       C  0.37820823  0.16017800  0.76473130    -0.17250
C1287       C  0.38684492  0.17893640  0.77976263     0.11080
C1288       C  0.37803550  0.18120969  0.80394570    -0.06050
C1289       C  0.36076464  0.16465177  0.81247606    -0.17280
C1290       C  0.35192163  0.14614479  0.79739092     0.11110
S1291       S  0.40866759  0.19953056  0.76690744    -0.32250
S1292       S  0.32946249  0.12608069  0.81003784    -0.32250
H1293       H  0.31729757  0.12122188  0.78791669     0.29120
H1294       H  0.40100342  0.22016695  0.77998261     0.29110
H1295       H  0.38508854  0.15833318  0.74622495     0.19700
H1296       H  0.35382853  0.16642719  0.83097287     0.19710
C1297       C  0.36427549  0.77569296  0.19515070    -0.06120
C1298       C  0.34109030  0.78601045  0.19235932    -0.17250
C1299       C  0.33353924  0.80569231  0.20673390     0.11080
C1300       C  0.34953656  0.81564312  0.22426333    -0.06050
C1301       C  0.37261581  0.80542866  0.22719583    -0.17280
C1302       C  0.37994637  0.78530407  0.21334753     0.11110
S1303       S  0.30342536  0.81743368  0.20157389    -0.32250
S1304       S  0.40884325  0.77199586  0.22102204    -0.32250
H1305       H  0.40183464  0.74799685  0.21597239     0.29120
H1306       H  0.30861223  0.84158929  0.20790102     0.29110
H1307       H  0.32887791  0.77903172  0.17846975     0.19700
H1308       H  0.38472506  0.81270418  0.24103901     0.19710
C1309       C  0.63531380  0.78201386  0.19178772    -0.06120
C1310       C  0.62495961  0.78193985  0.21528926    -0.17250
C1311       C  0.62962823  0.80061852  0.23209482     0.11080
C1312       C  0.64515205  0.81970456  0.22533412    -0.06050
C1313       C  0.65522322  0.81993883  0.20175772    -0.17280
C1314       C  0.65036682  0.80145641  0.18488728     0.11110
S1315       S  0.61538002  0.79900078  0.26175629    -0.32250
S1316       S  0.66379465  0.80386579  0.15488521    -0.32250
H1317       H  0.64502747  0.79201965  0.14219813     0.29120
H1318       H  0.61454234  0.82410301  0.26614690     0.29110
H1319       H  0.61335062  0.76707937  0.22064746     0.19700
H1320       H  0.66709957  0.83463327  0.19650906     0.19710
C1321       C  0.36258811  0.77891301  0.80836587    -0.06120
C1322       C  0.35834592  0.80166584  0.81908311    -0.17250
C1323       C  0.34971195  0.82115369  0.80516095     0.11080
C1324       C  0.34604193  0.81818835  0.77961064    -0.06050
C1325       C  0.35017495  0.79525559  0.76904148    -0.17280
C1326       C  0.35829112  0.77568181  0.78306521     0.11110
S1327       S  0.34249602  0.84876784  0.82141936    -0.32250
S1328       S  0.36293332  0.74712951  0.76750093    -0.32250
H1329       H  0.38133340  0.73846388  0.78300359     0.29120
H1330       H  0.32330844  0.85560598  0.80591593     0.29110
H1331       H  0.36102280  0.80402753  0.83863148     0.19700
H1332       H  0.34762173  0.79266671  0.74951511     0.19710
C1333       C  0.63803116  0.78352701  0.80900902    -0.06120
C1334       C  0.65994674  0.79605901  0.81284637    -0.17250
C1335       C  0.66683417  0.81534242  0.79786639     0.11080
C1336       C  0.65115511  0.82307452  0.77906587    -0.06050
C1337       C  0.62893118  0.81136557  0.77566778    -0.17280
C1338       C  0.62249069  0.79134034  0.78982304     0.11110
S1339       S  0.69608576  0.82889191  0.80327739    -0.32250
S1340       S  0.59533154  0.77554829  0.78070842    -0.32250
H1341       H  0.60512450  0.75225586  0.78415306     0.29120
H1342       H  0.69014879  0.85207591  0.79454817     0.29110
H1343       H  0.67200178  0.79071094  0.82754143     0.19700
H1344       H  0.61710711  0.81703511  0.76087465     0.19710
C1345       C  0.30731295  0.66688218  0.86589545    -0.06120
C1346       C  0.31936205  0.66551953  0.84321854    -0.17250
C1347       C  0.33584652  0.68328038  0.83599770     0.11080
C1348       C  0.34123399  0.70264257  0.85201147    -0.06050
C1349       C  0.32997946  0.70369428  0.87502186    -0.17280
C1350       C  0.31278345  0.68637126  0.88196403     0.11110
S1351       S  0.35006977  0.67979852  0.80649479    -0.32250
S1352       S  0.29776371  0.69100239  0.91092949    -0.32250
H1353       H  0.27494567  0.68298986  0.90280479     0.29120
H1354       H  0.34692514  0.70403075  0.79953635     0.29110
H1355       H  0.31568141  0.65056474  0.83082087     0.19700
H1356       H  0.33418294  0.71851158  0.88741834     0.19710
C1357       C  0.23657447  0.61878685  0.83746240    -0.06120
C1358       C  0.21791370  0.63542417  0.83290246    -0.17250
C1359       C  0.20092037  0.63146023  0.81423443     0.11080
C1360       C  0.20329028  0.61092845  0.79864984    -0.06050
C1361       C  0.22190805  0.59413264  0.80359007    -0.17280
C1362       C  0.23834868  0.59771255  0.82283753     0.11110
S1363       S  0.17599269  0.65258748  0.81248312    -0.32250
S1364       S  0.26130028  0.57485219  0.82752944    -0.32250
H1365       H  0.27941199  0.59054679  0.83623256     0.29120
H1366       H  0.15873779  0.63523600  0.80527630     0.29110
H1367       H  0.21625335  0.65140732  0.84441395     0.19700
H1368       H  0.22407855  0.57828154  0.79200321     0.19710
C1369       C  0.31289604  0.28379158  0.86274439    -0.06120
C1370       C  0.32705865  0.28864222  0.84190114    -0.17250
C1371       C  0.34670920  0.27390018  0.83544581     0.11080
C1372       C  0.35303422  0.25421050  0.85051825    -0.06050
C1373       C  0.33950636  0.24959486  0.87163083    -0.17280
C1374       C  0.31919364  0.26362872  0.87756033     0.11110
S1375       S  0.36235619  0.28061902  0.80727659    -0.32250
S1376       S  0.30112811  0.25325325  0.90293512    -0.32250
H1377       H  0.27874470  0.25834513  0.89170175     0.29120
H1378       H  0.38493621  0.27094210  0.81406567     0.29110
H1379       H  0.32273947  0.30397883  0.83037719     0.19700
H1380       H  0.34404470  0.23407798  0.88285467     0.19710
C1381       C  0.23716976  0.32641769  0.83326524    -0.06120
C1382       C  0.22555317  0.34919483  0.83457070    -0.17250
C1383       C  0.20827157  0.35648666  0.81710487     0.11080
C1384       C  0.20424399  0.34187546  0.79609040    -0.06050
C1385       C  0.21698945  0.31974319  0.79420893    -0.17280
C1386       C  0.23179549  0.31118872  0.81306423     0.11110
S1387       S  0.19018263  0.38314836  0.82343717    -0.32250
S1388       S  0.24078100  0.27976459  0.81108257    -0.32250
H1389       H  0.23867852  0.27539507  0.83637275     0.29120
H1390       H  0.20095353  0.38943945  0.84595330     0.29110
H1391       H  0.22950288  0.36115948  0.84980638     0.19700
H1392       H  0.21443175  0.30814268  0.77834946     0.19710
C1393       C  0.31209313  0.28368734  0.13592636    -0.06120
C1394       C  0.31157296  0.26962577  0.15735080    -0.17250
C1395       C  0.33140718  0.25588201  0.16476669     0.11080
C1396       C  0.35105857  0.25213966  0.14853031    -0.06050
C1397       C  0.35131360  0.26528803  0.12648945    -0.17280
C1398       C  0.33301925  0.28208204  0.12084933     0.11110
S1399       S  0.33132279  0.24643236  0.19636516    -0.32250
S1400       S  0.33903393  0.30218167  0.09563560    -0.32250
H1401       H  0.32843218  0.32259809  0.10687481     0.29120
H1402       H  0.35636654  0.24971063  0.19987658     0.29110
H1403       H  0.29599934  0.27011370  0.16935641     0.19700
H1404       H  0.36636475  0.26330967  0.11393944     0.19710
C1405       C  0.31092107  0.66264932  0.13614778    -0.06120
C1406       C  0.32310542  0.66177756  0.15884835    -0.17250
C1407       C  0.33956656  0.67976955  0.16589950     0.11080
C1408       C  0.34463988  0.69891697  0.14972430    -0.06050
C1409       C  0.33320846  0.69954336  0.12680143    -0.17280
C1410       C  0.31600297  0.68214437  0.12009551     0.11110
S1411       S  0.35322461  0.67738417  0.19585782    -0.32250
S1412       S  0.29999785  0.68726513  0.09174027    -0.32250
H1413       H  0.27719296  0.68074798  0.10106141     0.29120
H1414       H  0.37515546  0.68881204  0.18994552     0.29110
H1415       H  0.31970086  0.64700094  0.17135203     0.19700
H1416       H  0.33697690  0.71436751  0.11443582     0.19710
C1417       C  0.20258958  0.60877382  0.20182198    -0.06120
C1418       C  0.21535083  0.63086404  0.20116008    -0.17250
C1419       C  0.22972033  0.63734060  0.18123327     0.11080
C1420       C  0.23561034  0.61982252  0.16312306    -0.06050
C1421       C  0.22342850  0.59744054  0.16390627    -0.17280
C1422       C  0.20583364  0.59244633  0.18183283     0.11110
S1423       S  0.23734041  0.66907415  0.17900561    -0.32250
S1424       S  0.18640958  0.56645955  0.17709080    -0.32250
H1425       H  0.19619912  0.55868171  0.15460118     0.29120
H1426       H  0.23647459  0.66967361  0.15323729     0.29110
H1427       H  0.21348189  0.64400618  0.21579676     0.19700
H1428       H  0.22728181  0.58384778  0.15012297     0.19710
C1429       C  0.15126158  0.64206768  0.26970017    -0.06120
C1430       C  0.16768532  0.65131222  0.28688140    -0.17250
C1431       C  0.16103328  0.66975219  0.30315101     0.11080
C1432       C  0.13770843  0.68050155  0.30138507    -0.06050
C1433       C  0.12120062  0.67102304  0.28415705    -0.17280
C1434       C  0.12762249  0.65177721  0.26854679     0.11110
S1435       S  0.18249108  0.67698811  0.32702785    -0.32250
S1436       S  0.10475179  0.64016597  0.24800503    -0.32250
H1437       H  0.12060322  0.63085333  0.23016783     0.29120
H1438       H  0.16469219  0.67927114  0.34528474     0.29110
H1439       H  0.18556011  0.64325864  0.28838574     0.19700
H1440       H  0.10321485  0.67878001  0.28267422     0.19710
C1441       C  0.21110697  0.34206385  0.20793984    -0.06120
C1442       C  0.20856695  0.31982512  0.19547686    -0.17250
C1443       C  0.22348060  0.31348016  0.17586437     0.11080
C1444       C  0.24117074  0.32995791  0.16774430    -0.06050
C1445       C  0.24405658  0.35211631  0.18005030    -0.17280
C1446       C  0.22962871  0.35814212  0.20035680     0.11110
S1447       S  0.21938064  0.28367937  0.16265045    -0.32250
S1448       S  0.23686007  0.38581949  0.21642424    -0.32250
H1449       H  0.23040876  0.37722143  0.23973178     0.29120
H1450       H  0.22654816  0.28921197  0.13868528     0.29110
H1451       H  0.19451018  0.30726238  0.20077598     0.19700
H1452       H  0.25806114  0.36451262  0.17417000     0.19710
C1453       C  0.15778905  0.31155181  0.27496321    -0.06120
C1454       C  0.15259908  0.31583336  0.29984730    -0.17250
C1455       C  0.14514812  0.29712642  0.31529687     0.11080
C1456       C  0.14293189  0.27338852  0.30585928    -0.06050
C1457       C  0.14780608  0.26901630  0.28105630    -0.17280
C1458       C  0.15456242  0.28781422  0.26540066     0.11110
S1459       S  0.13928290  0.30466939  0.34694937    -0.32250
S1460       S  0.15740674  0.28030709  0.23332119    -0.32250
H1461       H  0.14854342  0.30265140  0.22479892     0.29120
H1462       H  0.14735712  0.28259033  0.35679541     0.29110
H1463       H  0.15494477  0.33381563  0.30753321     0.19700
H1464       H  0.14584399  0.25082857  0.27373182     0.19710
C1465       C  0.86368629  0.64185810  0.27414477    -0.06120
C1466       C  0.86229751  0.63756646  0.29952083    -0.17250
C1467       C  0.86560960  0.65621079  0.31667561     0.11080
C1468       C  0.87011375  0.67993811  0.30840272    -0.06050
C1469       C  0.87202754  0.68427169  0.28319578    -0.17280
C1470       C  0.86938264  0.66551989  0.26603765     0.11110
S1471       S  0.86433092  0.64827199  0.34871093    -0.32250
S1472       S  0.87479840  0.67290917  0.23434911    -0.32250
H1473       H  0.88365857  0.64988947  0.22770419     0.29120
H1474       H  0.85803669  0.67118383  0.35798391     0.29110
H1475       H  0.85801602  0.61959064  0.30609624     0.19700
H1476       H  0.87616369  0.70237861  0.27686622     0.19710
C1477       C  0.86444064  0.31513919  0.27528351    -0.06120
C1478       C  0.88413220  0.29988004  0.27013820    -0.17250
C1479       C  0.88877988  0.27934137  0.28435982     0.11080
C1480       C  0.87382693  0.27428864  0.30475013    -0.06050
C1481       C  0.85406614  0.28964216  0.30975466    -0.17280
C1482       C  0.84919886  0.30990805  0.29526830     0.11110
S1483       S  0.91315470  0.25971840  0.27463423    -0.32250
S1484       S  0.82303053  0.32804608  0.30298829    -0.32250
H1485       H  0.83179836  0.35011320  0.29392042     0.29120
H1486       H  0.90218197  0.23808846  0.28233776     0.29110
H1487       H  0.89549304  0.30358465  0.25442186     0.19700
H1488       H  0.84249792  0.28601829  0.32533349     0.19710
C1489       C  0.71473106  0.29130339  0.86202898    -0.06120
C1490       C  0.70923678  0.27200452  0.87775898    -0.17250
C1491       C  0.69080591  0.25548241  0.87208090     0.11080
C1492       C  0.67747261  0.25819572  0.85015213    -0.06050
C1493       C  0.68273134  0.27753085  0.83453974    -0.17280
C1494       C  0.70076841  0.29435115  0.84042850     0.11110
S1495       S  0.68528441  0.23132744  0.89349554    -0.32250
S1496       S  0.70400021  0.31996136  0.82026994    -0.32250
H1497       H  0.71030181  0.33658382  0.83882095     0.29120
H1498       H  0.67695659  0.21430258  0.87622303     0.29110
H1499       H  0.71972023  0.26947661  0.89436107     0.19700
H1500       H  0.67214442  0.27996241  0.81798077     0.19710
C1501       C  0.78992882  0.33433744  0.83644070    -0.06120
C1502       C  0.78820450  0.35679787  0.82470064    -0.17250
C1503       C  0.80322219  0.36252860  0.80492723     0.11080
C1504       C  0.82136814  0.34586683  0.79738140    -0.06050
C1505       C  0.82336852  0.32361660  0.80976555    -0.17280
C1506       C  0.80775240  0.31759138  0.82890576     0.11110
S1507       S  0.79678900  0.39045801  0.78914130    -0.32250
S1508       S  0.81132818  0.28816051  0.84272995    -0.32250
H1509       H  0.80308915  0.29483311  0.86617113     0.29120
H1510       H  0.80137200  0.38108914  0.76557814     0.29110
H1511       H  0.77422176  0.36950780  0.83025095     0.19700
H1512       H  0.83725946  0.31070926  0.80449348     0.19710
C1513       C  0.70672210  0.67461533  0.85876892    -0.06120
C1514       C  0.68660330  0.67603893  0.87459166    -0.17250
C1515       C  0.66787119  0.69284624  0.87099553     0.11080
C1516       C  0.66679552  0.70644194  0.84897605    -0.06050
C1517       C  0.68636465  0.70411697  0.83255416    -0.17280
C1518       C  0.70685209  0.69012760  0.83807361     0.11110
S1519       S  0.64780143  0.69753960  0.89666598    -0.32250
S1520       S  0.73318052  0.69548535  0.81930315    -0.32250
H1521       H  0.74984842  0.69341788  0.83872659     0.29120
H1522       H  0.64620783  0.72279421  0.89360276     0.29110
H1523       H  0.68573917  0.66469122  0.89066471     0.19700
H1524       H  0.68643942  0.71414212  0.81558050     0.19710
C1525       C  0.77760121  0.62305194  0.83207327    -0.06120
C1526       C  0.76946782  0.60833657  0.81264219    -0.17250
C1527       C  0.78523197  0.60090741  0.79379532     0.11080
C1528       C  0.80983397  0.60795746  0.79456999    -0.06050
C1529       C  0.81796532  0.62238856  0.81410548    -0.17280
C1530       C  0.80219932  0.63024423  0.83255619     0.11110
S1531       S  0.77274641  0.58269548  0.76933067    -0.32250
S1532       S  0.81443917  0.65044520  0.85551356    -0.32250
H1533       H  0.79343606  0.66474720  0.85785261     0.29120
H1534       H  0.78936928  0.58922675  0.75108526     0.29110
H1535       H  0.75066329  0.60278010  0.81204435     0.19700
H1536       H  0.83667956  0.62830033  0.81451609     0.19710
C1537       C  0.70510077  0.67446850  0.14084667    -0.06120
C1538       C  0.68758193  0.67905385  0.12239037    -0.17250
C1539       C  0.66911409  0.69636794  0.12522437     0.11080
C1540       C  0.66562574  0.70780747  0.14816904    -0.06050
C1541       C  0.68162489  0.70215406  0.16713830    -0.17280
C1542       C  0.70152063  0.68670863  0.16380222     0.11110
S1543       S  0.65206194  0.70424159  0.09815333    -0.32250
S1544       S  0.72221038  0.68594038  0.18926834    -0.32250
H1545       H  0.70525025  0.69066632  0.20793520     0.29120
H1546       H  0.64939555  0.72887164  0.10438035     0.29110
H1547       H  0.68826199  0.66963110  0.10497759     0.19700
H1548       H  0.67894439  0.71067932  0.18486256     0.19710
C1549       C  0.77889629  0.62525806  0.16752673    -0.06120
C1550       C  0.79174268  0.60323993  0.16545252    -0.17250
C1551       C  0.80965340  0.59664445  0.18265344     0.11080
C1552       C  0.81220542  0.61013253  0.20488996    -0.06050
C1553       C  0.79736108  0.63080624  0.20758834    -0.17280
C1554       C  0.78381082  0.63993169  0.18815981     0.11110
S1555       S  0.83004835  0.57288184  0.17312578    -0.32250
S1556       S  0.77860702  0.67209395  0.18882297    -0.32250
H1557       H  0.78035268  0.67537694  0.16334011     0.29120
H1558       H  0.85094151  0.58491498  0.18152084     0.29110
H1559       H  0.78915680  0.59187620  0.14942883     0.19700
H1560       H  0.79776627  0.64158258  0.22416333     0.19710
C1561       C  0.68114320  0.25651984  0.14562509    -0.06120
C1562       C  0.69309271  0.25372575  0.12315490    -0.17250
C1563       C  0.71258617  0.26869429  0.11687551     0.11080
C1564       C  0.71973586  0.28754569  0.13305056    -0.06050
C1565       C  0.70760782  0.29015708  0.15553831    -0.17280
C1566       C  0.68861932  0.27486873  0.16205136     0.11110
S1567       S  0.72824653  0.26185519  0.08869825    -0.32250
S1568       S  0.67508837  0.27962096  0.19182069    -0.32250
H1569       H  0.65177461  0.27126420  0.18605671     0.29120
H1570       H  0.75132053  0.26848535  0.09736415     0.29110
H1571       H  0.68755571  0.23940985  0.11069804     0.19700
H1572       H  0.71274962  0.30451962  0.16811257     0.19710
C1573       C  0.79151747  0.33473674  0.16083743    -0.06120
C1574       C  0.78829311  0.35637999  0.17398658    -0.17250
C1575       C  0.80266731  0.36182858  0.19443433     0.11080
C1576       C  0.82148917  0.34572933  0.20133907    -0.06050
C1577       C  0.82491728  0.32431093  0.18768900    -0.17280
C1578       C  0.81011007  0.31859629  0.16771870     0.11110
S1579       S  0.79475924  0.38860233  0.21178142    -0.32250
S1580       S  0.81571124  0.29032993  0.15194104    -0.32250
H1581       H  0.80757712  0.29796387  0.12880263     0.29120
H1582       H  0.80026825  0.37863687  0.23480812     0.29110
H1583       H  0.77369525  0.36856323  0.16896899     0.19700
H1584       H  0.83936865  0.31190388  0.19255475     0.19710
loop_ 
_geom_bond_atom_site_label_1 
_geom_bond_atom_site_label_2 
_geom_bond_distance 
_geom_bond_site_symmetry_2 
_ccdc_geom_bond_type 
C1            C2   1.405       .  A
C1            C6   1.407       .  A
C1         C1564   1.487       .  S
C2            C3   1.398       .  A
C2            H7   1.084       .  S
C3            C4   1.398       .  A
C3         C1573   1.473       .  S
C4            C5   1.405       .  A
C4            H8   1.083       .  S
C5            C6   1.405       .  A
C5           C74   1.477       .  S
C6            H9   1.083       .  S
C10          C11   1.419       .  A
C10          C15   1.424       .  A
C10        C1537   1.531       .  S
C11          C12   1.412       .  A
C11          H16   1.075       .  S
C12          C13   1.400       .  A
C12        C1549   1.504       .  S
C13          C14   1.402       .  A
C13          H17   1.082       .  S
C14          C15   1.405       .  A
C14          C40   1.489       .  S
C15          H18   1.081       .  S
C19          C20   1.417       .  A
C19          C24   1.414       .  A
C19        C1513   1.508       .  S
C20          C21   1.404       .  A
C20          H25   1.081       .  S
C21          C22   1.405       .  A
C21          C50   1.486       .  S
C22          C23   1.399       .  A
C22          H26   1.083       .  S
C23          C24   1.404       .  A
C23        C1525   1.489       .  S
C24          H27   1.080       .  S
C28          C29   1.409       .  A
C28          C33   1.405       .  A
C28        C1489   1.487       .  S
C29          C30   1.406       .  A
C29          H34   1.083       .  S
C30          C31   1.404       .  A
C30          C64   1.478       .  S
C31          C32   1.398       .  A
C31          H35   1.084       .  S
C32          C33   1.399       .  A
C32        C1501   1.474       .  S
C33          H36   1.084       .  S
N37          N38   1.324       .  A
N37          C41   1.339       .  A
N37         Cu45   2.066       .  S
N38          C39   1.356       .  A
N38         Cu44   2.117   1_554  S
C39          C40   1.395       .  A
C39          H42   1.081       .  S
C40          C41   1.380       .  A
C41          H43   1.082       .  S
Cu44         N47   2.117       .  S
Cu45         N55   2.064       .  S
Cu46         N48   2.051       .  S
Cu46         N54   2.051       .  S
N47          N48   1.323       .  A
N47          C51   1.355       .  A
N48          C49   1.337       .  A
C49          C50   1.378       .  A
C49          H52   1.082       .  S
C50          C51   1.396       .  A
C51          H53   1.082       .  S
N54          N55   1.317   1_556  A
N54          C58   1.342       .  A
N55          C56   1.344       .  A
C56          C57   1.385   1_554  A
C56          H59   1.082       .  S
C57          C58   1.382       .  A
C57          C81   1.468       .  S
C58          H60   1.082       .  S
N61          N62   1.323       .  A
N61          C65   1.341       .  A
N61         Cu69   2.066       .  S
N62          C63   1.349       .  A
N62         Cu68   2.087       .  S
C63          C64   1.387       .  A
C63          H66   1.081       .  S
C64          C65   1.382       .  A
C65          H67   1.081       .  S
Cu68         N71   2.087   1_556  S
Cu69         N79   2.066       .  S
Cu70         N72   2.060       .  S
Cu70         N78   2.059       .  S
N71          N72   1.323       .  A
N71          C75   1.348       .  A
N72          C73   1.341       .  A
C73          C74   1.381       .  A
C73          H76   1.082       .  S
C74          C75   1.388       .  A
C75          H77   1.082       .  S
N78          N79   1.320   1_554  A
N78          C82   1.343       .  A
N79          C80   1.344       .  A
C80          C81   1.384       .  A
C80          H83   1.082       .  S
C81          C82   1.382   1_556  A
C82          H84   1.082       .  S
C85          C86   1.404       .  A
C85          C90   1.406       .  A
C85        C1576   1.486       .  S
C86          C87   1.398       .  A
C86          H91   1.084       .  S
C87          C88   1.400       .  A
C87        C1477   1.473       .  S
C88          C89   1.405       .  A
C88          H92   1.083       .  S
C89          C90   1.405       .  A
C89         C134   1.478       .  S
C90          H93   1.082       .  S
C94          C95   1.416       .  A
C94          C99   1.417       .  A
C94        C1552   1.518       .  S
C95          C96   1.399       .  A
C95         H100   1.078       .  S
C96          C97   1.396       .  A
C96        C1465   1.492       .  S
C97          C98   1.403       .  A
C97         H101   1.082       .  S
C98          C99   1.412       .  A
C98         C124   1.487       .  S
C99         H102   1.079       .  S
C103        C104   1.407       .  A
C103        C108   1.408       .  A
C103       C1441   1.493       .  S
C104        C105   1.402       .  A
C104        H109   1.083       .  S
C105        C106   1.402       .  A
C105       C1453   1.491       .  S
C106        C107   1.405       .  A
C106        H110   1.082       .  S
C107        C108   1.405       .  A
C107        C148   1.482       .  S
C108        H111   1.082       .  S
C112        C113   1.414       .  A
C112        C117   1.416       .  A
C112       C1417   1.510       .  S
C113        C114   1.397       .  A
C113        H118   1.081       .  S
C114        C115   1.393       .  A
C114       C1429   1.476       .  S
C115        C116   1.404       .  A
C115        H119   1.083       .  S
C116        C117   1.409       .  A
C116        C158   1.486       .  S
C117        H120   1.079       .  S
N121        N122   1.323       .  A
N121        C125   1.341       .  A
N121       Cu129   2.081       .  S
N122        C123   1.350       .  A
N122       Cu128   2.085       .  S
C123        C124   1.388       .  A
C123        H126   1.082       .  S
C124        C125   1.387       .  A
C125        H127   1.082       .  S
Cu128       N131   2.085       .  S
Cu129       N139   2.080       .  S
Cu130       N132   2.060       .  S
Cu130       N138   2.060       .  S
N131        N132   1.322       .  A
N131        C135   1.347       .  A
N132        C133   1.342       .  A
C133        C134   1.382       .  A
C133        H136   1.081       .  S
C134        C135   1.387       .  A
C135        H137   1.082       .  S
N138        N139   1.320       .  A
N138        C142   1.342       .  A
N139        C140   1.347       .  A
C140        C141   1.387   1_655  A
C140        H143   1.082       .  S
C141        C142   1.381   1_455  A
C141        C165   1.472       .  S
C142        H144   1.082       .  S
N145        N146   1.323       .  A
N145        C149   1.342       .  A
N145       Cu153   2.069       .  S
N146        C147   1.349       .  A
N146       Cu152   2.092       .  S
C147        C148   1.389       .  A
C147        H150   1.082       .  S
C148        C149   1.383       .  A
C149        H151   1.081       .  S
Cu152       N155   2.092       .  S
Cu153       N163   2.068       .  S
Cu154       N156   2.065       .  S
Cu154       N162   2.064       .  S
N155        N156   1.322       .  A
N155        C159   1.351       .  A
N156        C157   1.338       .  A
C157        C158   1.384       .  A
C157        H160   1.082       .  S
C158        C159   1.392       .  A
C159        H161   1.081       .  S
N162        N163   1.319       .  A
N162        C166   1.346       .  A
N163        C164   1.344       .  A
C164        C165   1.385       .  A
C164        H167   1.082       .  S
C165        C166   1.384       .  A
C166        H168   1.082       .  S
C169        C170   1.405       .  A
C169        C174   1.406       .  A
C169       C1405   1.494       .  S
C170        C171   1.406       .  A
C170        H175   1.080       .  S
C171        C172   1.408       .  A
C171       C1420   1.504       .  S
C172        C173   1.407       .  A
C172        H176   1.082       .  S
C173        C174   1.404       .  A
C173        C208   1.481       .  S
C174        H177   1.083       .  S
C178        C179   1.412       .  A
C178        C183   1.412       .  A
C178       C1393   1.501       .  S
C179        C180   1.394       .  A
C179        H184   1.082       .  S
C180        C181   1.393       .  A
C180       C1444   1.473       .  S
C181        C182   1.404       .  A
C181        H185   1.083       .  S
C182        C183   1.407       .  A
C182        C232   1.481       .  S
C183        H186   1.080       .  S
C187        C188   1.410       .  A
C187        C192   1.406       .  A
C187       C1369   1.493       .  S
C188        C189   1.408       .  A
C188        H193   1.081       .  S
C189        C190   1.403       .  A
C189       C1381   1.499       .  S
C190        C191   1.402       .  A
C190        H194   1.083       .  S
C191        C192   1.400       .  A
C191        C242   1.474       .  S
C192        H195   1.083       .  S
C196        C197   1.404       .  A
C196        C201   1.409       .  A
C196       C1345   1.490       .  S
C197        C198   1.397       .  A
C197        H202   1.084       .  S
C198        C199   1.401       .  A
C198       C1357   1.478       .  S
C199        C200   1.409       .  A
C199        H203   1.083       .  S
C200        C201   1.409       .  A
C200        C218   1.485       .  S
C201        H204   1.083       .  S
N205        N206   1.323       .  A
N205        C209   1.342       .  A
N205       Cu213   2.064       .  S
N206        C207   1.350       .  A
N206       Cu212   2.098   1_554  S
C207        C208   1.389       .  A
C207        H210   1.082       .  S
C208        C209   1.381       .  A
C209        H211   1.081       .  S
Cu212       N215   2.099       .  S
Cu213       N223   2.063       .  S
Cu214       N216   2.068       .  S
Cu214       N222   2.067       .  S
N215        N216   1.323       .  A
N215        C219   1.350       .  A
N216        C217   1.343       .  A
C217        C218   1.383       .  A
C217        H220   1.082       .  S
C218        C219   1.390       .  A
C219        H221   1.082       .  S
N222        N223   1.320   1_556  A
N222        C226   1.343       .  A
N223        C224   1.344       .  A
C224        C225   1.383       .  A
C224        H227   1.082       .  S
C225        C226   1.383   1_554  A
C225        C249   1.468       .  S
C226        H228   1.082       .  S
N229        N230   1.323       .  A
N229        C233   1.337       .  A
N229       Cu237   2.060       .  S
N230        C231   1.350       .  A
N230       Cu236   2.089   1_554  S
C231        C232   1.391       .  A
C231        H234   1.081       .  S
C232        C233   1.381       .  A
C233        H235   1.082       .  S
Cu236       N239   2.089       .  S
Cu237       N247   2.060       .  S
Cu238       N240   2.054       .  S
Cu238       N246   2.054       .  S
N239        N240   1.323       .  A
N239        C243   1.350       .  A
N240        C241   1.338       .  A
C241        C242   1.378       .  A
C241        H244   1.082       .  S
C242        C243   1.388       .  A
C243        H245   1.081       .  S
N246        N247   1.318   1_556  A
N246        C250   1.342       .  A
N247        C248   1.344       .  A
C248        C249   1.384       .  A
C248        H251   1.082       .  S
C249        C250   1.383   1_554  A
C250        H252   1.082       .  S
C253        C254   1.408       .  A
C253        C258   1.405       .  A
C253       C1333   1.494       .  S
C254        C255   1.410       .  A
C254        H259   1.080       .  S
C255        C256   1.408       .  A
C255       C1516   1.508       .  S
C256        C257   1.406       .  A
C256        H260   1.081       .  S
C257        C258   1.400       .  A
C257        C292   1.479       .  S
C258        H261   1.083       .  S
C262        C263   1.403       .  A
C262        C267   1.407       .  A
C262       C1321   1.478       .  S
C263        C264   1.401       .  A
C263        H268   1.084       .  S
C264        C265   1.399       .  A
C264       C1348   1.478       .  S
C265        C266   1.407       .  A
C265        H269   1.083       .  S
C266        C267   1.406       .  A
C266        C302   1.481       .  S
C267        H270   1.083       .  S
C271        C272   1.400       .  A
C271        C276   1.403       .  A
C271       C1309   1.477       .  S
C272        C273   1.401       .  A
C272        H277   1.083       .  S
C273        C274   1.406       .  A
C273        C316   1.475       .  S
C274        C275   1.404       .  A
C274        H278   1.083       .  S
C275        C276   1.409       .  A
C275       C1540   1.496       .  S
C276        H279   1.083       .  S
C280        C281   1.409       .  A
C280        C285   1.409       .  A
C280       C1297   1.491       .  S
C281        C282   1.402       .  A
C281        H286   1.084       .  S
C282        C283   1.396       .  A
C282       C1408   1.476       .  S
C283        C284   1.402       .  A
C283        H287   1.084       .  S
C284        C285   1.402       .  A
C284        C326   1.475       .  S
C285        H288   1.083       .  S
N289        N290   1.325       .  A
N289        C293   1.341       .  A
N289       Cu297   2.062       .  S
N290        C291   1.351       .  A
N290       Cu296   2.106       .  S
C291        C292   1.390       .  A
C291        H294   1.082       .  S
C292        C293   1.379       .  A
C293        H295   1.082       .  S
Cu296       N299   2.105       .  S
Cu297       N307   2.060       .  S
Cu298       N300   2.053       .  S
Cu298       N306   2.051       .  S
N299        N300   1.322       .  A
N299        C303   1.353       .  A
N300        C301   1.339       .  A
C301        C302   1.379       .  A
C301        H304   1.082       .  S
C302        C303   1.392       .  A
C303        H305   1.082       .  S
N306        N307   1.318       .  A
N306        C310   1.341       .  A
N307        C308   1.344       .  A
C308        C309   1.384       .  A
C308        H311   1.082       .  S
C309        C310   1.381       .  A
C309        C333   1.465   1_556  S
C310        H312   1.082       .  S
N313        N314   1.323       .  A
N313        C317   1.339       .  A
N313       Cu321   2.056       .  S
N314        C315   1.348       .  A
N314       Cu320   2.089       .  S
C315        C316   1.388       .  A
C315        H318   1.082       .  S
C316        C317   1.379       .  A
C317        H319   1.082       .  S
Cu320       N323   2.089       .  S
Cu321       N331   2.055       .  S
Cu322       N324   2.055       .  S
Cu322       N330   2.054       .  S
N323        N324   1.322       .  A
N323        C327   1.349       .  A
N324        C325   1.339       .  A
C325        C326   1.379       .  A
C325        H328   1.082       .  S
C326        C327   1.388       .  A
C327        H329   1.082       .  S
N330        N331   1.318       .  A
N330        C334   1.341       .  A
N331        C332   1.344       .  A
C332        C333   1.383       .  A
C332        H335   1.082       .  S
C333        C334   1.382       .  A
C334        H336   1.082       .  S
C337        C338   1.408       .  A
C337        C342   1.407       .  A
C337       C1273   1.488       .  S
C338        C339   1.400       .  A
C338        H343   1.084       .  S
C339        C340   1.397       .  A
C339       C1285   1.474       .  S
C340        C341   1.404       .  A
C340        H344   1.083       .  S
C341        C342   1.403       .  A
C341        C410   1.478       .  S
C342        H345   1.083       .  S
C346        C347   1.404       .  A
C346        C351   1.416       .  A
C346       C1249   1.501       .  S
C347        C348   1.392       .  A
C347        H352   1.081       .  S
C348        C349   1.396       .  A
C348       C1261   1.469       .  S
C349        C350   1.405       .  A
C349        H353   1.083       .  S
C350        C351   1.410       .  A
C350        C376   1.483       .  S
C351        H354   1.080       .  S
C355        C356   1.405       .  A
C355        C360   1.406       .  A
C355       C1237   1.484       .  S
C356        C357   1.398       .  A
C356        H361   1.084       .  S
C357        C358   1.397       .  A
C357       C1336   1.473       .  S
C358        C359   1.404       .  A
C358        H362   1.083       .  S
C359        C360   1.402       .  A
C359        C386   1.474       .  S
C360        H363   1.083       .  S
C364        C365   1.408       .  A
C364        C369   1.407       .  A
C364       C1225   1.494       .  S
C365        C366   1.405       .  A
C365        H370   1.083       .  S
C366        C367   1.403       .  A
C366       C1324   1.491       .  S
C367        C368   1.405       .  A
C367        H371   1.082       .  S
C368        C369   1.405       .  A
C368        C400   1.481       .  S
C369        H372   1.083       .  S
N373        N374   1.324       .  A
N373        C377   1.342       .  A
N373       Cu381   2.078       .  S
N374        C375   1.348       .  A
N374       Cu380   2.087   1_545  S
C375        C376   1.388       .  A
C375        H378   1.082       .  S
C376        C377   1.384       .  A
C377        H379   1.082       .  S
Cu380       N383   2.086       .  S
Cu381       N391   2.076   1_545  S
Cu382       N384   2.045       .  S
Cu382       N390   2.044       .  S
N383        N384   1.321       .  A
N383        C387   1.348       .  A
N384        C385   1.338       .  A
C385        C386   1.378       .  A
C385        H388   1.082       .  S
C386        C387   1.389       .  A
C387        H389   1.082       .  S
N390        N391   1.319       .  A
N390        C394   1.341       .  A
N391        C392   1.346   1_565  A
C392        C393   1.387   1_545  A
C392        H395   1.082       .  S
C393        C394   1.378       .  A
C393        C417   1.467       .  S
C394        H396   1.082       .  S
N397        N398   1.324       .  A
N397        C401   1.343       .  A
N397       Cu405   2.075       .  S
N398        C399   1.348       .  A
N398       Cu404   2.090       .  S
C399        C400   1.387       .  A
C399        H402   1.082       .  S
C400        C401   1.383       .  A
C401        H403   1.081       .  S
Cu404       N407   2.089   1_565  S
Cu405       N415   2.074       .  S
Cu406       N408   2.046       .  S
Cu406       N414   2.046   1_545  S
N407        N408   1.321       .  A
N407        C411   1.349       .  A
N408        C409   1.338       .  A
C409        C410   1.379       .  A
C409        H412   1.082       .  S
C410        C411   1.390       .  A
C411        H413   1.082       .  S
N414        N415   1.319       .  A
N414        C418   1.342       .  A
N415        C416   1.344       .  A
C416        C417   1.386       .  A
C416        H419   1.082       .  S
C417        C418   1.379       .  A
C418        H420   1.082   1_565  S
C421        C422   1.408       .  A
C421        C426   1.401       .  A
C421       C1288   1.477       .  S
C422        C423   1.408       .  A
C422        H427   1.083       .  S
C423        C424   1.407       .  A
C423        C460   1.479       .  S
C424        C425   1.397       .  A
C424        H428   1.084       .  S
C425        C426   1.395       .  A
C425       C1372   1.472       .  S
C426        H429   1.085       .  S
C430        C431   1.406       .  A
C430        C435   1.401       .  A
C430       C1264   1.482       .  S
C431        C432   1.402       .  A
C431        H436   1.084       .  S
C432        C433   1.402       .  A
C432       C1492   1.477       .  S
C433        C434   1.406       .  A
C433        H437   1.083       .  S
C434        C435   1.400       .  A
C434        C470   1.477       .  S
C435        H438   1.083       .  S
C439        C440   1.409       .  A
C439        C444   1.412       .  A
C439       C1213   1.501       .  S
C440        C441   1.401       .  A
C440        H445   1.082       .  S
C441        C442   1.401       .  A
C441       C1396   1.495       .  S
C442        C443   1.404       .  A
C442        H446   1.082       .  S
C443        C444   1.406       .  A
C443        C484   1.478       .  S
C444        H447   1.081       .  S
C448        C449   1.412       .  A
C448        C453   1.410       .  A
C448       C1201   1.502       .  S
C449        C450   1.403       .  A
C449        H454   1.080       .  S
C450        C451   1.402       .  A
C450        C494   1.478       .  S
C451        C452   1.396       .  A
C451        H455   1.083       .  S
C452        C453   1.399       .  A
C452       C1561   1.473       .  S
C453        H456   1.080       .  S
N457        N458   1.322       .  A
N457        C461   1.340       .  A
N457       Cu465   2.062       .  S
N458        C459   1.351       .  A
N458       Cu464   2.089       .  S
C459        C460   1.389       .  A
C459        H462   1.082       .  S
C460        C461   1.381       .  A
C461        H463   1.082       .  S
Cu464       N467   2.090       .  S
Cu465       N475   2.062       .  S
Cu466       N468   2.055       .  S
Cu466       N474   2.055       .  S
N467        N468   1.323       .  A
N467        C471   1.345       .  A
N468        C469   1.342       .  A
C469        C470   1.380       .  A
C469        H472   1.082       .  S
C470        C471   1.388       .  A
C471        H473   1.082       .  S
N474        N475   1.319       .  A
N474        C478   1.343       .  A
N475        C476   1.343       .  A
C476        C477   1.382       .  A
C476        H479   1.082       .  S
C477        C478   1.382       .  A
C477        C501   1.466   1_556  S
C478        H480   1.082       .  S
N481        N482   1.322       .  A
N481        C485   1.338       .  A
N481       Cu489   2.061       .  S
N482        C483   1.351       .  A
N482       Cu488   2.086       .  S
C483        C484   1.389       .  A
C483        H486   1.082       .  S
C484        C485   1.381       .  A
C485        H487   1.082       .  S
Cu488       N491   2.087       .  S
Cu489       N499   2.059       .  S
Cu490       N492   2.058       .  S
Cu490       N498   2.057       .  S
N491        N492   1.323       .  A
N491        C495   1.347       .  A
N492        C493   1.340       .  A
C493        C494   1.381       .  A
C493        H496   1.082       .  S
C494        C495   1.389       .  A
C495        H497   1.081       .  S
N498        N499   1.319       .  A
N498        C502   1.343       .  A
N499        C500   1.343       .  A
C500        C501   1.382       .  A
C500        H503   1.082       .  S
C501        C502   1.383       .  A
C502        H504   1.082       .  S
C505        C506   1.401       .  A
C505        C510   1.403       .  A
C505       C1189   1.484       .  S
C506        C507   1.406       .  A
C506        H511   1.081       .  S
C507        C508   1.408       .  A
C507       C1204   1.501       .  S
C508        C509   1.405       .  A
C508        H512   1.081       .  S
C509        C510   1.403       .  A
C509        C544   1.477       .  S
C510        H513   1.083       .  S
C514        C515   1.401       .  A
C514        C519   1.403       .  A
C514       C1177   1.472       .  S
C515        C516   1.400       .  A
C515        H520   1.083       .  S
C516        C517   1.403       .  A
C516        C578   1.476       .  S
C517        C518   1.405       .  A
C517        H521   1.082       .  S
C518        C519   1.408       .  A
C518       C1216   1.499       .  S
C519        H522   1.082       .  S
C523        C524   1.404       .  A
C523        C528   1.407       .  A
C523       C1165   1.483       .  S
C524        C525   1.399       .  A
C524        H529   1.084       .  S
C525        C526   1.400       .  A
C525       C1300   1.477       .  S
C526        C527   1.406       .  A
C526        H530   1.083       .  S
C527        C528   1.407       .  A
C527        C568   1.481       .  S
C528        H531   1.083       .  S
C532        C533   1.409       .  A
C532        C537   1.413       .  A
C532       C1153   1.498       .  S
C533        C534   1.398       .  A
C533        H538   1.081       .  S
C534        C535   1.395       .  A
C534       C1312   1.474       .  S
C535        C536   1.402       .  A
C535        H539   1.083       .  S
C536        C537   1.405       .  A
C536        C554   1.479       .  S
C537        H540   1.081       .  S
N541        N542   1.325       .  A
N541        C545   1.345       .  A
N541       Cu549   2.085       .  S
N542        C543   1.346       .  A
N542       Cu548   2.080   1_545  S
C543        C544   1.383       .  A
C543        H546   1.082       .  S
C544        C545   1.384       .  A
C545        H547   1.082       .  S
Cu548       N551   2.079       .  S
Cu549       N559   2.083   1_545  S
Cu550       N552   2.052       .  S
Cu550       N558   2.052       .  S
N551        N552   1.320       .  A
N551        C555   1.348       .  A
N552        C553   1.338       .  A
C553        C554   1.382       .  A
C553        H556   1.082       .  S
C554        C555   1.389       .  A
C555        H557   1.082       .  S
N558        N559   1.320       .  A
N558        C562   1.342       .  A
N559        C560   1.347   1_565  A
C560        C561   1.388   1_545  A
C560        H563   1.082       .  S
C561        C562   1.379       .  A
C561        C585   1.471       .  S
C562        H564   1.082       .  S
N565        N566   1.324       .  A
N565        C569   1.343       .  A
N565       Cu573   2.079       .  S
N566        C567   1.348       .  A
N566       Cu572   2.085       .  S
C567        C568   1.386       .  A
C567        H570   1.082       .  S
C568        C569   1.384       .  A
C569        H571   1.082       .  S
Cu572       N575   2.084   1_565  S
Cu573       N583   2.078       .  S
Cu574       N576   2.051       .  S
Cu574       N582   2.051   1_545  S
N575        N576   1.321       .  A
N575        C579   1.349       .  A
N576        C577   1.337       .  A
C577        C578   1.379       .  A
C577        H580   1.082       .  S
C578        C579   1.389       .  A
C579        H581   1.082       .  S
N582        N583   1.319       .  A
N582        C586   1.344       .  A
N583        C584   1.345       .  A
C584        C585   1.387       .  A
C584        H587   1.082       .  S
C585        C586   1.381       .  A
C586        H588   1.082   1_565  S
C589        C590   1.412       .  A
C589        C594   1.414       .  A
C589       C1141   1.505       .  S
C590        C591   1.396       .  A
C590        H595   1.082       .  S
C591        C592   1.391       .  A
C591       C1240   1.469       .  S
C592        C593   1.401       .  A
C592        H596   1.083       .  S
C593        C594   1.408       .  A
C593        C638   1.479       .  S
C594        H597   1.080       .  S
C598        C599   1.410       .  A
C598        C603   1.413       .  A
C598       C1129   1.502       .  S
C599        C600   1.409       .  A
C599        H604   1.081       .  S
C600        C601   1.401       .  A
C600       C1156   1.500       .  S
C601        C602   1.399       .  A
C601        H605   1.080       .  S
C602        C603   1.404       .  A
C602        C628   1.480       .  S
C603        H606   1.081       .  S
C607        C608   1.405       .  A
C607        C612   1.406       .  A
C607       C1117   1.489       .  S
C608        C609   1.409       .  A
C608        H613   1.079       .  S
C609        C610   1.403       .  A
C609       C1252   1.501       .  S
C610        C611   1.401       .  A
C610        H614   1.081       .  S
C611        C612   1.403       .  A
C611        C662   1.476       .  S
C612        H615   1.083       .  S
C616        C617   1.406       .  A
C616        C621   1.402       .  A
C616       C1105   1.475       .  S
C617        C618   1.406       .  A
C617        H622   1.084       .  S
C618        C619   1.402       .  A
C618        C652   1.475       .  S
C619        C620   1.395       .  A
C619        H623   1.083       .  S
C620        C621   1.399       .  A
C620       C1192   1.469       .  S
C621        H624   1.084       .  S
N625        N626   1.323       .  A
N625        C629   1.339       .  A
N625       Cu633   2.074       .  S
N626        C627   1.349       .  A
N626       Cu632   2.077       .  S
C627        C628   1.387       .  A
C627        H630   1.081       .  S
C628        C629   1.384       .  A
C629        H631   1.081       .  S
Cu632       N635   2.077       .  S
Cu633       N643   2.072       .  S
Cu634       N636   2.066       .  S
Cu634       N642   2.064       .  S
N635        N636   1.322       .  A
N635        C639   1.348       .  A
N636        C637   1.339       .  A
C637        C638   1.383       .  A
C637        H640   1.082       .  S
C638        C639   1.387       .  A
C639        H641   1.082       .  S
N642        N643   1.319       .  A
N642        C646   1.345       .  A
N643        C644   1.345       .  A
C644        C645   1.385       .  A
C644        H647   1.082       .  S
C645        C646   1.384       .  A
C645        C669   1.472       .  S
C646        H648   1.082       .  S
N649        N650   1.322       .  A
N649        C653   1.340       .  A
N649       Cu657   2.065       .  S
N650        C651   1.347       .  A
N650       Cu656   2.073       .  S
C651        C652   1.385       .  A
C651        H654   1.082       .  S
C652        C653   1.383       .  A
C653        H655   1.082       .  S
Cu656       N659   2.074       .  S
Cu657       N667   2.064       .  S
Cu658       N660   2.074       .  S
Cu658       N666   2.073       .  S
N659        N660   1.323       .  A
N659        C663   1.347       .  A
N660        C661   1.341       .  A
C661        C662   1.383       .  A
C661        H664   1.081       .  S
C662        C663   1.384       .  A
C663        H665   1.081       .  S
N666        N667   1.320       .  A
N666        C670   1.346       .  A
N667        C668   1.344       .  A
C668        C669   1.383   1_545  A
C668        H671   1.082   1_545  S
C669        C670   1.385   1_565  A
C670        H672   1.082       .  S
C673        C674   1.410       .  A
C673        C678   1.412       .  A
C673       C1081   1.497       .  S
C674        C675   1.401       .  A
C674        H679   1.080       .  S
C675        C676   1.396       .  A
C675       C1093   1.482       .  S
C676        C677   1.400       .  A
C676        H680   1.083       .  S
C677        C678   1.403       .  A
C677        C722   1.477       .  S
C678        H681   1.081       .  S
C682        C683   1.401       .  A
C682        C687   1.406       .  A
C682       C1456   1.475       .  S
C683        C684   1.398       .  A
C683        H688   1.084       .  S
C684        C685   1.398       .  A
C684       C1069   1.473       .  S
C685        C686   1.406       .  A
C685        H689   1.083       .  S
C686        C687   1.406       .  A
C686        C736   1.479       .  S
C687        H690   1.083       .  S
C691        C692   1.405       .  A
C691        C696   1.405       .  A
C691       C1480   1.484       .  S
C692        C693   1.404       .  A
C692        H697   1.084       .  S
C693        C694   1.403       .  A
C693       C1108   1.488       .  S
C694        C695   1.405       .  A
C694        H698   1.082       .  S
C695        C696   1.402       .  A
C695        C746   1.479       .  S
C696        H699   1.083       .  S
C700        C701   1.403       .  A
C700        C705   1.403       .  A
C700       C1057   1.474       .  S
C701        C702   1.401       .  A
C701        H706   1.084       .  S
C702        C703   1.397       .  A
C702       C1120   1.472       .  S
C703        C704   1.403       .  A
C703        H707   1.084       .  S
C704        C705   1.403       .  A
C704        C712   1.474       .  S
C705        H708   1.084       .  S
N709        N710   1.323       .  A
N709        C713   1.339       .  A
N709       Cu717   2.058       .  S
N710        C711   1.347       .  A
N710       Cu716   2.080   1_655  S
C711        C712   1.386       .  A
C711        H714   1.082       .  S
C712        C713   1.380       .  A
C713        H715   1.082       .  S
Cu716       N719   2.079       .  S
Cu717       N727   2.057       .  S
Cu718       N720   2.055       .  S
Cu718       N726   2.054       .  S
N719        N720   1.322       .  A
N719        C723   1.348       .  A
N720        C721   1.337       .  A
C721        C722   1.381       .  A
C721        H724   1.082       .  S
C722        C723   1.388       .  A
C723        H725   1.082       .  S
N726        N727   1.318   1_455  A
N726        C730   1.343       .  A
N727        C728   1.343       .  A
C728        C729   1.383   1_655  A
C728        H731   1.082       .  S
C729        C730   1.382       .  A
C729        C753   1.466       .  S
C730        H732   1.082       .  S
N733        N734   1.323       .  A
N733        C737   1.340       .  A
N733       Cu741   2.060       .  S
N734        C735   1.350       .  A
N734       Cu740   2.092       .  S
C735        C736   1.389       .  A
C735        H738   1.082       .  S
C736        C737   1.380       .  A
C737        H739   1.082       .  S
Cu740       N743   2.092   1_455  S
Cu741       N751   2.059       .  S
Cu742       N744   2.057       .  S
Cu742       N750   2.055       .  S
N743        N744   1.323       .  A
N743        C747   1.349       .  A
N744        C745   1.340       .  A
C745        C746   1.380       .  A
C745        H748   1.082       .  S
C746        C747   1.390       .  A
C747        H749   1.082       .  S
N750        N751   1.319   1_655  A
N750        C754   1.342       .  A
N751        C752   1.343       .  A
C752        C753   1.383       .  A
C752        H755   1.082       .  S
C753        C754   1.382   1_455  A
C754        H756   1.082       .  S
C757        C758   1.401       .  A
C757        C762   1.408       .  A
C757       C1528   1.482       .  S
C758        C759   1.403       .  A
C758        H763   1.084       .  S
C759        C760   1.405       .  A
C759       C1045   1.490       .  S
C760        C761   1.408       .  A
C760        H764   1.083       .  S
C761        C762   1.411       .  A
C761        C796   1.488       .  S
C762        H765   1.083       .  S
C766        C767   1.404       .  A
C766        C771   1.407       .  A
C766       C1504   1.490       .  S
C767        C768   1.398       .  A
C767        H772   1.084       .  S
C768        C769   1.401       .  A
C768       C1060   1.476       .  S
C769        C770   1.406       .  A
C769        H773   1.083       .  S
C770        C771   1.406       .  A
C770        C806   1.480       .  S
C771        H774   1.082       .  S
C775        C776   1.411       .  A
C775        C780   1.410       .  A
C775       C1360   1.495       .  S
C776        C777   1.404       .  A
C776        H781   1.083       .  S
C777        C778   1.398       .  A
C777       C1033   1.481       .  S
C778        C779   1.403       .  A
C778        H782   1.083       .  S
C779        C780   1.403       .  A
C779        C820   1.477       .  S
C780        H783   1.083       .  S
C784        C785   1.408       .  A
C784        C789   1.414       .  A
C784       C1384   1.503       .  S
C785        C786   1.403       .  A
C785        H790   1.082       .  S
C786        C787   1.403       .  A
C786       C1084   1.499       .  S
C787        C788   1.403       .  A
C787        H791   1.080       .  S
C788        C789   1.409       .  A
C788        C830   1.488       .  S
C789        H792   1.080       .  S
N793        N794   1.323       .  A
N793        C797   1.345       .  A
N793       Cu801   2.090       .  S
N794        C795   1.349       .  A
N794       Cu800   2.088       .  S
C795        C796   1.387       .  A
C795        H798   1.082       .  S
C796        C797   1.388       .  A
C797        H799   1.081       .  S
Cu800       N803   2.088       .  S
Cu801       N811   2.089       .  S
Cu802       N804   2.062       .  S
Cu802       N810   2.061       .  S
N803        N804   1.322       .  A
N803        C807   1.347       .  A
N804        C805   1.343       .  A
C805        C806   1.382       .  A
C805        H808   1.082       .  S
C806        C807   1.388       .  A
C807        H809   1.082       .  S
N810        N811   1.321       .  A
N810        C814   1.344       .  A
N811        C812   1.347       .  A
C812        C813   1.388   1_655  A
C812        H815   1.082       .  S
C813        C814   1.381   1_455  A
C813        C837   1.474       .  S
C814        H816   1.082       .  S
N817        N818   1.322       .  A
N817        C821   1.339       .  A
N817       Cu825   2.053       .  S
N818        C819   1.349       .  A
N818       Cu824   2.091       .  S
C819        C820   1.389       .  A
C819        H822   1.082       .  S
C820        C821   1.379       .  A
C821        H823   1.081       .  S
Cu824       N827   2.092       .  S
Cu825       N835   2.053       .  S
Cu826       N828   2.087       .  S
Cu826       N834   2.085       .  S
N827        N828   1.324       .  A
N827        C831   1.352       .  A
N828        C829   1.342       .  A
C829        C830   1.386       .  A
C829        H832   1.082       .  S
C830        C831   1.390       .  A
C831        H833   1.082       .  S
N834        N835   1.319       .  A
N834        C838   1.347       .  A
N835        C836   1.343       .  A
C836        C837   1.381       .  A
C836        H839   1.082       .  S
C837        C838   1.389       .  A
C838        H840   1.082       .  S
C841        C842   1.407       .  A
C841        C846   1.412       .  A
C841       C1432   1.493       .  S
C842        C843   1.399       .  A
C842        H847   1.083       .  S
C843        C844   1.395       .  A
C843       C1021   1.471       .  S
C844        C845   1.401       .  A
C844        H848   1.084       .  S
C845        C846   1.407       .  A
C845        C914   1.476       .  S
C846        H849   1.083       .  S
C850        C851   1.401       .  A
C850        C855   1.407       .  A
C850       C1036   1.480       .  S
C851        C852   1.406       .  A
C851        H856   1.083       .  S
C852        C853   1.403       .  A
C852       C1009   1.498       .  S
C853        C854   1.404       .  A
C853        H857   1.081       .  S
C854        C855   1.406       .  A
C854        C890   1.479       .  S
C855        H858   1.083       .  S
C859        C860   1.401       .  A
C859        C864   1.400       .  A
C859       C1048   1.475       .  S
C860        C861   1.408       .  A
C860        H865   1.081       .  S
C861        C862   1.410       .  A
C861       C1144   1.503       .  S
C862        C863   1.405       .  A
C862        H866   1.082       .  S
C863        C864   1.402       .  A
C863        C880   1.478       .  S
C864        H867   1.083       .  S
C868        C869   1.402       .  A
C868        C873   1.398       .  A
C868       C1468   1.475       .  S
C869        C870   1.412       .  A
C869        H874   1.082       .  S
C870        C871   1.409       .  A
C870       C1132   1.503       .  S
C871        C872   1.405       .  A
C871        H875   1.081       .  S
C872        C873   1.401       .  A
C872        C904   1.479       .  S
C873        H876   1.083       .  S
N877        N878   1.324       .  A
N877        C881   1.342       .  A
N877       Cu885   2.071       .  S
N878        C879   1.347       .  A
N878       Cu884   2.084       .  S
C879        C880   1.386       .  A
C879        H882   1.082       .  S
C880        C881   1.382       .  A
C881        H883   1.082       .  S
Cu884       N887   2.084   1_655  S
Cu885       N895   2.069       .  S
Cu886       N888   2.072       .  S
Cu886       N894   2.070       .  S
N887        N888   1.323       .  A
N887        C891   1.352       .  A
N888        C889   1.339       .  A
C889        C890   1.383       .  A
C889        H892   1.082       .  S
C890        C891   1.387       .  A
C891        H893   1.082       .  S
N894        N895   1.320   1_455  A
N894        C898   1.345       .  A
N895        C896   1.345       .  A
C896        C897   1.384   1_655  A
C896        H899   1.082       .  S
C897        C898   1.384       .  A
C897        C921   1.472       .  S
C898        H900   1.082       .  S
N901        N902   1.323       .  A
N901        C905   1.343       .  A
N901       Cu909   2.071       .  S
N902        C903   1.346       .  A
N902       Cu908   2.081   1_655  S
C903        C904   1.387       .  A
C903        H906   1.082       .  S
C904        C905   1.383       .  A
C905        H907   1.082       .  S
Cu908       N911   2.080       .  S
Cu909       N919   2.070       .  S
Cu910       N912   2.070       .  S
Cu910       N918   2.069       .  S
N911        N912   1.323       .  A
N911        C915   1.349       .  A
N912        C913   1.341       .  A
C913        C914   1.383       .  A
C913        H916   1.082       .  S
C914        C915   1.385       .  A
C915        H917   1.082       .  S
N918        N919   1.320   1_455  A
N918        C922   1.345       .  A
N919        C920   1.345       .  A
C920        C921   1.384   1_655  A
C920        H923   1.082       .  S
C921        C922   1.384       .  A
C922        H924   1.082       .  S
C925        C926   1.397       .  A
C925        C930   1.399       .  A
C925       C1168   1.476       .  S
C926        C927   1.404       .  A
C926        H931   1.083       .  S
C927        C928   1.410       .  A
C927       C1024   1.486       .  S
C928        C929   1.404       .  A
C928        H932   1.083       .  S
C929        C930   1.409       .  A
C929        C964   1.482       .  S
C930        H933   1.083       .  S
C934        C935   1.395       .  A
C934        C939   1.397       .  A
C934       C1228   1.477       .  S
C935        C936   1.406       .  A
C935        H940   1.081       .  S
C936        C937   1.415       .  A
C936       C1012   1.498       .  S
C937        C938   1.406       .  A
C937        H941   1.081       .  S
C938        C939   1.410       .  A
C938        C981   1.487       .  S
C939        H942   1.082       .  S
C943        C944   1.404       .  A
C943        C948   1.406       .  A
C943       C1072   1.487       .  S
C944        C945   1.402       .  A
C944        H949   1.083       .  S
C945        C946   1.402       .  A
C945       C1180   1.486       .  S
C946        C947   1.405       .  A
C946        H950   1.083       .  S
C947        C948   1.403       .  A
C947        C998   1.477       .  S
C948        H951   1.083       .  S
C952        C953   1.399       .  A
C952        C957   1.401       .  A
C952       C1096   1.467       .  S
C953        C954   1.397       .  A
C953        H958   1.084       .  S
C954        C955   1.400       .  A
C954       C1276   1.471       .  S
C955        C956   1.407       .  A
C955        H959   1.083       .  S
C956        C957   1.403       .  A
C956        C988   1.477       .  S
C957        H960   1.083       .  S
N961        N962   1.324       .  A
N961        C965   1.355       .  A
N961       Cu969   2.121       .  S
N962        C963   1.337       .  A
N962       Cu968   2.043       .  S
C963        C964   1.375       .  A
C963        H966   1.081       .  S
C964        C965   1.396       .  A
C965        H967   1.081       .  S
Cu968       N971   2.042       .  S
Cu969       N979   2.121       .  S
Cu970       N972   2.046       .  S
Cu970       N978   2.047       .  S
N971        N972   1.315       .  A
N971        C975   1.341       .  A
N972        C973   1.342       .  A
C973        C974   1.383       .  A
C973        H976   1.082       .  S
C974        C975   1.382       .  A
C974       C1005   1.462       .  S
C975        H977   1.082       .  S
N978        N979   1.323       .  A
N978        C982   1.336       .  A
N979        C980   1.355       .  A
C980        C981   1.398       .  A
C980        H983   1.082       .  S
C981        C982   1.377       .  A
C982        H984   1.082       .  S
N985        N986   1.322       .  A
N985        C989   1.340       .  A
N985       Cu993   2.052       .  S
N986        C987   1.348       .  A
N986       Cu992   2.090       .  S
C987        C988   1.389       .  A
C987        H990   1.081       .  S
C988        C989   1.379       .  A
C989        H991   1.081       .  S
Cu992       N995   2.090       .  S
Cu993      N1003   2.050       .  S
Cu994       N996   2.056       .  S
Cu994      N1002   2.055       .  S
N995        N996   1.323       .  A
N995        C999   1.348       .  A
N996        C997   1.341       .  A
C997        C998   1.380       .  A
C997       H1000   1.082       .  S
C998        C999   1.388       .  A
C999       H1001   1.082       .  S
N1002      N1003   1.319       .  A
N1002      C1006   1.342       .  A
N1003      C1004   1.342       .  A
C1004      C1005   1.381   1_545  A
C1004      H1007   1.082   1_545  S
C1005      C1006   1.382   1_565  A
C1006      H1008   1.082   1_545  S
C1009      C1010   1.406       .  A
C1009      C1014   1.421       .  A
C1010      C1011   1.395       .  A
C1010      H1019   1.082       .  S
C1011      C1012   1.420       .  A
C1011      S1015   1.807       .  S
C1012      C1013   1.407       .  A
C1013      C1014   1.399       .  A
C1013      H1020   1.082       .  S
C1014      S1016   1.805       .  S
S1015      H1018   1.407       .  S
S1016      H1017   1.407       .  S
C1021      C1022   1.400       .  A
C1021      C1026   1.412       .  A
C1022      C1023   1.400       .  A
C1022      H1031   1.084       .  S
C1023      C1024   1.419       .  A
C1023      S1027   1.805       .  S
C1024      C1025   1.404       .  A
C1025      C1026   1.395       .  A
C1025      H1032   1.084       .  S
C1026      S1028   1.807       .  S
S1027      H1030   1.407       .  S
S1028      H1029   1.401       .  S
C1033      C1034   1.404       .  A
C1033      C1038   1.413       .  A
C1034      C1035   1.402       .  A
C1034      H1043   1.084       .  S
C1035      C1036   1.413       .  A
C1035      S1039   1.804       .  S
C1036      C1037   1.403       .  A
C1037      C1038   1.400       .  A
C1037      H1044   1.084       .  S
C1038      S1040   1.804       .  S
S1039      H1042   1.405       .  S
S1040      H1041   1.406       .  S
C1045      C1046   1.408       .  A
C1045      C1050   1.418       .  A
C1046      C1047   1.401       .  A
C1046      H1055   1.084       .  S
C1047      C1048   1.410       .  A
C1047      S1051   1.804       .  S
C1048      C1049   1.401       .  A
C1049      C1050   1.399       .  A
C1049      H1056   1.084       .  S
C1050      S1052   1.805       .  S
S1051      H1054   1.405       .  S
S1052      H1053   1.407       .  S
C1057      C1058   1.403       .  A
C1057      C1062   1.411       .  A
C1058      C1059   1.400       .  A
C1058      H1067   1.084       .  S
C1059      C1060   1.412       .  A
C1059      S1063   1.804       .  S
C1060      C1061   1.403       .  A
C1061      C1062   1.398       .  A
C1061      H1068   1.084       .  S
C1062      S1064   1.804       .  S
S1063      H1066   1.406       .  S
S1064      H1065   1.406       .  S
C1069      C1070   1.401       .  A
C1069      C1074   1.409       .  A
C1070      C1071   1.400       .  A
C1070      H1079   1.084       .  S
C1071      C1072   1.417       .  A
C1071      S1075   1.804       .  S
C1072      C1073   1.408       .  A
C1073      C1074   1.397       .  A
C1073      H1080   1.084       .  S
C1074      S1076   1.805       .  S
S1075      H1078   1.406       .  S
S1076      H1077   1.405       .  S
C1081      C1082   1.409       .  A
C1081      C1086   1.417       .  A
C1082      C1083   1.400       .  A
C1082      H1091   1.082       .  S
C1083      C1084   1.418       .  A
C1083      S1087   1.805       .  S
C1084      C1085   1.409       .  A
C1085      C1086   1.396       .  A
C1085      H1092   1.082       .  S
C1086      S1088   1.806       .  S
S1087      H1090   1.407       .  S
S1088      H1089   1.407       .  S
C1093      C1094   1.406       .  A
C1093      C1098   1.415       .  A
C1094      C1095   1.395       .  A
C1094      H1103   1.084       .  S
C1095      C1096   1.409       .  A
C1095      S1099   1.807       .  S
C1096      C1097   1.401       .  A
C1097      C1098   1.399       .  A
C1097      H1104   1.084       .  S
C1098      S1100   1.803       .  S
S1099      H1102   1.403       .  S
S1100      H1101   1.406       .  S
C1105      C1106   1.401       .  A
C1105      C1110   1.411       .  A
C1106      C1107   1.401       .  A
C1106      H1115   1.084       .  S
C1107      C1108   1.417       .  A
C1107      S1111   1.804       .  S
C1108      C1109   1.406       .  A
C1109      C1110   1.399       .  A
C1109      H1116   1.084       .  S
C1110      S1112   1.805       .  S
S1111      H1114   1.407       .  S
S1112      H1113   1.405       .  S
C1117      C1118   1.407       .  A
C1117      C1122   1.418       .  A
C1118      C1119   1.400       .  A
C1118      H1127   1.083       .  S
C1119      C1120   1.410       .  A
C1119      S1123   1.805       .  S
C1120      C1121   1.400       .  A
C1121      C1122   1.398       .  A
C1121      H1128   1.084       .  S
C1122      S1124   1.805       .  S
S1123      H1126   1.404       .  S
S1124      H1125   1.407       .  S
C1129      C1130   1.408       .  A
C1129      C1134   1.420       .  A
C1130      C1131   1.403       .  A
C1130      H1139   1.082       .  S
C1131      C1132   1.421       .  A
C1131      S1135   1.805       .  S
C1132      C1133   1.407       .  A
C1133      C1134   1.398       .  A
C1133      H1140   1.082       .  S
C1134      S1136   1.805       .  S
S1135      H1138   1.407       .  S
S1136      H1137   1.407       .  S
C1141      C1142   1.409       .  A
C1141      C1146   1.420       .  A
C1142      C1143   1.397       .  A
C1142      H1151   1.082       .  S
C1143      C1144   1.418       .  A
C1143      S1147   1.806       .  S
C1144      C1145   1.410       .  A
C1145      C1146   1.406       .  A
C1145      H1152   1.080       .  S
C1146      S1148   1.811       .  S
S1147      H1150   1.407       .  S
S1148      H1149   1.407       .  S
C1153      C1154   1.408       .  A
C1153      C1158   1.418       .  A
C1154      C1155   1.404       .  A
C1154      H1163   1.080       .  S
C1155      C1156   1.419       .  A
C1155      S1159   1.811       .  S
C1156      C1157   1.406       .  A
C1157      C1158   1.396       .  A
C1157      H1164   1.080       .  S
C1158      S1160   1.806       .  S
S1159      H1162   1.407       .  S
S1160      H1161   1.407       .  S
C1165      C1166   1.405       .  A
C1165      C1170   1.414       .  A
C1166      C1167   1.398       .  A
C1166      H1175   1.084       .  S
C1167      C1168   1.410       .  A
C1167      S1171   1.805       .  S
C1168      C1169   1.403       .  A
C1169      C1170   1.402       .  A
C1169      H1176   1.084       .  S
C1170      S1172   1.803       .  S
S1171      H1174   1.405       .  S
S1172      H1173   1.406       .  S
C1177      C1178   1.400       .  A
C1177      C1182   1.411       .  A
C1178      C1179   1.396       .  A
C1178      H1187   1.084       .  S
C1179      C1180   1.416       .  A
C1179      S1183   1.805       .  S
C1180      C1181   1.407       .  A
C1181      C1182   1.402       .  A
C1181      H1188   1.084       .  S
C1182      S1184   1.805       .  S
S1183      H1186   1.407       .  S
S1184      H1185   1.403       .  S
C1189      C1190   1.407       .  A
C1189      C1194   1.416       .  A
C1190      C1191   1.397       .  A
C1190      H1199   1.084       .  S
C1191      C1192   1.409       .  A
C1191      S1195   1.805       .  S
C1192      C1193   1.400       .  A
C1193      C1194   1.398       .  A
C1193      H1200   1.084       .  S
C1194      S1196   1.803       .  S
S1195      H1198   1.404       .  S
S1196      H1197   1.407       .  S
C1201      C1202   1.411       .  A
C1201      C1206   1.419       .  A
C1202      C1203   1.399       .  A
C1202      H1211   1.081       .  S
C1203      C1204   1.418       .  A
C1203      S1207   1.805       .  S
C1204      C1205   1.410       .  A
C1205      C1206   1.396       .  A
C1205      H1212   1.081       .  S
C1206      S1208   1.805       .  S
S1207      H1210   1.407       .  S
S1208      H1209   1.407       .  S
C1213      C1214   1.409       .  A
C1213      C1218   1.417       .  A
C1214      C1215   1.393       .  A
C1214      H1223   1.081       .  S
C1215      C1216   1.416       .  A
C1215      S1219   1.806       .  S
C1216      C1217   1.412       .  A
C1217      C1218   1.403       .  A
C1217      H1224   1.084       .  S
C1218      S1220   1.803       .  S
S1219      H1222   1.407       .  S
S1220      H1221   1.407       .  S
C1225      C1226   1.410       .  A
C1225      C1230   1.419       .  A
C1226      C1227   1.405       .  A
C1226      H1235   1.083       .  S
C1227      C1228   1.411       .  A
C1227      S1231   1.805       .  S
C1228      C1229   1.400       .  A
C1229      C1230   1.396       .  A
C1229      H1236   1.085       .  S
C1230      S1232   1.805       .  S
S1231      H1234   1.404       .  S
S1232      H1233   1.407       .  S
C1237      C1238   1.407       .  A
C1237      C1242   1.417       .  A
C1238      C1239   1.400       .  A
C1238      H1247   1.084       .  S
C1239      C1240   1.409       .  A
C1239      S1243   1.804       .  S
C1240      C1241   1.399       .  A
C1241      C1242   1.395       .  A
C1241      H1248   1.085       .  S
C1242      S1244   1.805       .  S
S1243      H1246   1.404       .  S
S1244      H1245   1.407       .  S
C1249      C1250   1.407       .  A
C1249      C1254   1.421       .  A
C1250      C1251   1.399       .  A
C1250      H1259   1.081       .  S
C1251      C1252   1.421       .  A
C1251      S1255   1.805       .  S
C1252      C1253   1.406       .  A
C1253      C1254   1.398       .  A
C1253      H1260   1.079       .  S
C1254      S1256   1.813       .  S
S1255      H1258   1.407       .  S
S1256      H1257   1.407       .  S
C1261      C1262   1.399       .  A
C1261      C1266   1.413       .  A
C1262      C1263   1.399       .  A
C1262      H1271   1.084       .  S
C1263      C1264   1.418       .  A
C1263      S1267   1.804       .  S
C1264      C1265   1.403       .  A
C1265      C1266   1.395       .  A
C1265      H1272   1.084       .  S
C1266      S1268   1.806       .  S
S1267      H1270   1.407       .  S
S1268      H1269   1.403       .  S
C1273      C1274   1.407       .  A
C1273      C1278   1.419       .  A
C1274      C1275   1.397       .  A
C1274      H1283   1.084       .  S
C1275      C1276   1.409       .  A
C1275      S1279   1.805       .  S
C1276      C1277   1.400       .  A
C1277      C1278   1.400       .  A
C1277      H1284   1.084       .  S
C1278      S1280   1.804       .  S
S1279      H1282   1.405       .  S
S1280      H1281   1.407       .  S
C1285      C1286   1.404       .  A
C1285      C1290   1.410       .  A
C1286      C1287   1.402       .  A
C1286      H1295   1.084       .  S
C1287      C1288   1.412       .  A
C1287      S1291   1.804       .  S
C1288      C1289   1.404       .  A
C1289      C1290   1.397       .  A
C1289      H1296   1.084       .  S
C1290      S1292   1.805       .  S
S1291      H1294   1.406       .  S
S1292      H1293   1.405       .  S
C1297      C1298   1.408       .  A
C1297      C1302   1.418       .  A
C1298      C1299   1.400       .  A
C1298      H1307   1.084       .  S
C1299      C1300   1.411       .  A
C1299      S1303   1.805       .  S
C1300      C1301   1.401       .  A
C1301      C1302   1.400       .  A
C1301      H1308   1.084       .  S
C1302      S1304   1.804       .  S
S1303      H1306   1.406       .  S
S1304      H1305   1.407       .  S
C1309      C1310   1.405       .  A
C1309      C1314   1.412       .  A
C1310      C1311   1.401       .  A
C1310      H1319   1.084       .  S
C1311      C1312   1.411       .  A
C1311      S1315   1.803       .  S
C1312      C1313   1.403       .  A
C1313      C1314   1.397       .  A
C1313      H1320   1.084       .  S
C1314      S1316   1.804       .  S
S1315      H1318   1.406       .  S
S1316      H1317   1.406       .  S
C1321      C1322   1.402       .  A
C1321      C1326   1.411       .  A
C1322      C1323   1.402       .  A
C1322      H1331   1.084       .  S
C1323      C1324   1.417       .  A
C1323      S1327   1.804       .  S
C1324      C1325   1.407       .  A
C1325      C1326   1.399       .  A
C1325      H1332   1.083       .  S
C1326      S1328   1.804       .  S
S1327      H1330   1.406       .  S
S1328      H1329   1.405       .  S
C1333      C1334   1.410       .  A
C1333      C1338   1.420       .  A
C1334      C1335   1.399       .  A
C1334      H1343   1.083       .  S
C1335      C1336   1.408       .  A
C1335      S1339   1.804       .  S
C1336      C1337   1.400       .  A
C1337      C1338   1.399       .  A
C1337      H1344   1.084       .  S
C1338      S1340   1.804       .  S
S1339      H1342   1.405       .  S
S1340      H1341   1.407       .  S
C1345      C1346   1.407       .  A
C1345      C1350   1.417       .  A
C1346      C1347   1.398       .  A
C1346      H1355   1.084       .  S
C1347      C1348   1.409       .  A
C1347      S1351   1.802       .  S
C1348      C1349   1.403       .  A
C1349      C1350   1.403       .  A
C1349      H1356   1.084       .  S
C1350      S1352   1.803       .  S
S1351      H1354   1.402       .  S
S1352      H1353   1.406       .  S
C1357      C1358   1.401       .  A
C1357      C1362   1.411       .  A
C1358      C1359   1.400       .  A
C1358      H1367   1.084       .  S
C1359      C1360   1.419       .  A
C1359      S1363   1.804       .  S
C1360      C1361   1.409       .  A
C1361      C1362   1.401       .  A
C1361      H1368   1.083       .  S
C1362      S1364   1.805       .  S
S1363      H1366   1.407       .  S
S1364      H1365   1.405       .  S
C1369      C1370   1.408       .  A
C1369      C1374   1.421       .  A
C1370      C1371   1.399       .  A
C1370      H1379   1.083       .  S
C1371      C1372   1.409       .  A
C1371      S1375   1.805       .  S
C1372      C1373   1.399       .  A
C1373      C1374   1.399       .  A
C1373      H1380   1.084       .  S
C1374      S1376   1.804       .  S
S1375      H1378   1.405       .  S
S1376      H1377   1.407       .  S
C1381      C1382   1.411       .  A
C1381      C1386   1.414       .  A
C1382      C1383   1.407       .  A
C1382      H1391   1.081       .  S
C1383      C1384   1.416       .  A
C1383      S1387   1.808       .  S
C1384      C1385   1.412       .  A
C1385      C1386   1.396       .  A
C1385      H1392   1.083       .  S
C1386      S1388   1.805       .  S
S1387      H1390   1.406       .  S
S1388      H1389   1.407       .  S
C1393      C1394   1.407       .  A
C1393      C1398   1.422       .  A
C1394      C1395   1.391       .  A
C1394      H1403   1.082       .  S
C1395      C1396   1.416       .  A
C1395      S1399   1.804       .  S
C1396      C1397   1.408       .  A
C1397      C1398   1.404       .  A
C1397      H1404   1.083       .  S
C1398      S1400   1.803       .  S
S1399      H1402   1.407       .  S
S1400      H1401   1.407       .  S
C1405      C1406   1.410       .  A
C1405      C1410   1.420       .  A
C1406      C1407   1.400       .  A
C1406      H1415   1.083       .  S
C1407      C1408   1.409       .  A
C1407      S1411   1.804       .  S
C1408      C1409   1.401       .  A
C1409      C1410   1.399       .  A
C1409      H1416   1.084       .  S
C1410      S1412   1.804       .  S
S1411      H1414   1.405       .  S
S1412      H1413   1.407       .  S
C1417      C1418   1.410       .  A
C1417      C1422   1.423       .  A
C1418      C1419   1.396       .  A
C1418      H1427   1.081       .  S
C1419      C1420   1.417       .  A
C1419      S1423   1.807       .  S
C1420      C1421   1.409       .  A
C1421      C1422   1.408       .  A
C1421      H1428   1.081       .  S
C1422      S1424   1.810       .  S
S1423      H1426   1.407       .  S
S1424      H1425   1.407       .  S
C1429      C1430   1.399       .  A
C1429      C1434   1.411       .  A
C1430      C1431   1.396       .  A
C1430      H1439   1.084       .  S
C1431      C1432   1.420       .  A
C1431      S1435   1.803       .  S
C1432      C1433   1.408       .  A
C1433      C1434   1.404       .  A
C1433      H1440   1.083       .  S
C1434      S1436   1.804       .  S
S1435      H1438   1.405       .  S
S1436      H1437   1.405       .  S
C1441      C1442   1.408       .  A
C1441      C1446   1.419       .  A
C1442      C1443   1.394       .  A
C1442      H1451   1.083       .  S
C1443      C1444   1.410       .  A
C1443      S1447   1.807       .  S
C1444      C1445   1.402       .  A
C1445      C1446   1.404       .  A
C1445      H1452   1.084       .  S
C1446      S1448   1.803       .  S
S1447      H1450   1.402       .  S
S1448      H1449   1.406       .  S
C1453      C1454   1.407       .  A
C1453      C1458   1.419       .  A
C1454      C1455   1.399       .  A
C1454      H1463   1.084       .  S
C1455      C1456   1.411       .  A
C1455      S1459   1.804       .  S
C1456      C1457   1.400       .  A
C1457      C1458   1.399       .  A
C1457      H1464   1.084       .  S
C1458      S1460   1.804       .  S
S1459      H1462   1.405       .  S
S1460      H1461   1.407       .  S
C1465      C1466   1.408       .  A
C1465      C1470   1.417       .  A
C1466      C1467   1.400       .  A
C1466      H1475   1.083       .  S
C1467      C1468   1.410       .  A
C1467      S1471   1.806       .  S
C1468      C1469   1.402       .  A
C1469      C1470   1.400       .  A
C1469      H1476   1.084       .  S
C1470      S1472   1.804       .  S
S1471      H1474   1.403       .  S
S1472      H1473   1.406       .  S
C1477      C1478   1.401       .  A
C1477      C1482   1.410       .  A
C1478      C1479   1.400       .  A
C1478      H1487   1.084       .  S
C1479      C1480   1.416       .  A
C1479      S1483   1.804       .  S
C1480      C1481   1.406       .  A
C1481      C1482   1.398       .  A
C1481      H1488   1.084       .  S
C1482      S1484   1.805       .  S
S1483      H1486   1.406       .  S
S1484      H1485   1.404       .  S
C1489      C1490   1.405       .  A
C1489      C1494   1.418       .  A
C1490      C1491   1.401       .  A
C1490      H1499   1.084       .  S
C1491      C1492   1.412       .  A
C1491      S1495   1.804       .  S
C1492      C1493   1.400       .  A
C1493      C1494   1.399       .  A
C1493      H1500   1.084       .  S
C1494      S1496   1.805       .  S
S1495      H1498   1.405       .  S
S1496      H1497   1.407       .  S
C1501      C1502   1.401       .  A
C1501      C1506   1.409       .  A
C1502      C1503   1.400       .  A
C1502      H1511   1.084       .  S
C1503      C1504   1.418       .  A
C1503      S1507   1.804       .  S
C1504      C1505   1.409       .  A
C1505      C1506   1.397       .  A
C1505      H1512   1.084       .  S
C1506      S1508   1.805       .  S
S1507      H1510   1.407       .  S
S1508      H1509   1.405       .  S
C1513      C1514   1.410       .  A
C1513      C1518   1.421       .  A
C1514      C1515   1.402       .  A
C1514      H1523   1.081       .  S
C1515      C1516   1.421       .  A
C1515      S1519   1.805       .  S
C1516      C1517   1.410       .  A
C1517      C1518   1.401       .  A
C1517      H1524   1.081       .  S
C1518      S1520   1.805       .  S
S1519      H1522   1.407       .  S
S1520      H1521   1.407       .  S
C1525      C1526   1.406       .  A
C1525      C1530   1.416       .  A
C1526      C1527   1.407       .  A
C1526      H1535   1.084       .  S
C1527      C1528   1.414       .  A
C1527      S1531   1.804       .  S
C1528      C1529   1.401       .  A
C1529      C1530   1.399       .  A
C1529      H1536   1.084       .  S
C1530      S1532   1.805       .  S
S1531      H1534   1.404       .  S
S1532      H1533   1.407       .  S
C1537      C1538   1.418       .  A
C1537      C1542   1.434       .  A
C1538      C1539   1.404       .  A
C1538      H1547   1.082       .  S
C1539      C1540   1.413       .  A
C1539      S1543   1.805       .  S
C1540      C1541   1.396       .  A
C1541      C1542   1.400       .  A
C1541      H1548   1.084       .  S
C1542      S1544   1.798       .  S
S1543      H1546   1.407       .  S
S1544      H1545   1.408       .  S
C1549      C1550   1.410       .  A
C1549      C1554   1.410       .  A
C1550      C1551   1.411       .  A
C1550      H1559   1.083       .  S
C1551      C1552   1.427       .  A
C1551      S1555   1.802       .  S
C1552      C1553   1.410       .  A
C1553      C1554   1.392       .  A
C1553      H1560   1.080       .  S
C1554      S1556   1.798       .  S
S1555      H1558   1.407       .  S
S1556      H1557   1.407       .  S
C1561      C1562   1.401       .  A
C1561      C1566   1.411       .  A
C1562      C1563   1.402       .  A
C1562      H1571   1.084       .  S
C1563      C1564   1.417       .  A
C1563      S1567   1.803       .  S
C1564      C1565   1.405       .  A
C1565      C1566   1.395       .  A
C1565      H1572   1.084       .  S
C1566      S1568   1.807       .  S
S1567      H1570   1.407       .  S
S1568      H1569   1.403       .  S
C1573      C1574   1.402       .  A
C1573      C1578   1.409       .  A
C1574      C1575   1.400       .  A
C1574      H1583   1.084       .  S
C1575      C1576   1.417       .  A
C1575      S1579   1.804       .  S
C1576      C1577   1.407       .  A
C1577      C1578   1.396       .  A
C1577      H1584   1.084       .  S
C1578      S1580   1.804       .  S
S1579      H1582   1.407       .  S
S1580      H1581   1.406       .  S
