geometry optimzed in LAMMPS
_audit_creation_date              2020-11-30 
_audit_creation_method            'lammps2cif' 
_symmetry_space_group_name_H-M    'P1' 
_symmetry_Int_Tables_number       1 
_symmetry_cell_setting            triclinic 
loop_ 
_symmetry_equiv_pos_as_xyz 
  x,y,z 
_cell_length_a                    48.80226553 
_cell_length_b                    34.439453245739394 
_cell_length_c                    42.26590171304001 
_cell_angle_alpha                 89.93039940071509 
_cell_angle_beta                  90.58765475831353 
_cell_angle_gamma                 90.11144294582336 
loop_ 
_atom_site_label 
_atom_site_type_symbol 
_atom_site_fract_x 
_atom_site_fract_y 
_atom_site_fract_z 
_atom_site_charge 
Zr1        Zr  0.00245396  0.92729874  0.02305182     2.17500
O2          O  0.49959198  0.85914152  0.00560388    -0.50900
O3          O  0.00526614  0.91593935  0.07949625    -0.74100
O4          O  0.04749635  0.89605534  0.02966935    -0.80900
O5          O  0.42613041  0.94139534  0.02336156    -0.82600
O6          O  0.07966973  0.94052605  0.01653331    -0.78300
O7          O  0.45870690  0.89638701  0.03486452    -0.89900
O8          O  0.00311199  0.97404775  0.10503084    -0.75900
O9          O  0.03251996  0.97599400  0.04296914    -0.85400
O10         O  0.47513656  0.97640833  0.04492884    -0.85000
O11         O  0.02768173  0.94871817  0.97778866    -0.71800
O12         O  0.47415217  0.94901065  0.97983115    -0.83900
Zr13       Zr  0.50240736  0.07157308  0.97762240     2.26400
Zr14       Zr  0.05687940  0.99872112  0.99816961     2.06300
Zr15       Zr  0.44734556  0.99978522  0.00259590     2.10000
Zr16       Zr  0.50500589  0.02512086  0.06462842     1.78800
O17         O  0.40888331  0.98140317  0.96882070    -0.92700
O18         O  0.04663631  0.03438711  0.09701514    -0.40500
O19         O  0.47646851  0.05028483  0.02264649    -0.77200
O20         O  0.03045334  0.04986183  0.02093823    -0.95900
O21         O  0.02918615  0.02299991  0.95592882    -0.89200
O22         O  0.47257787  0.02211423  0.95806230    -0.92000
C23         C  0.00406736  0.93674724  0.10456754     1.01700
C24         C  0.43367565  0.90801534  0.03386838     1.14700
C25         C  0.07266965  0.90687108  0.02670308     1.05500
O26         O  0.09364371  0.01466677  0.03523406    -0.94200
O27         O  0.07930021  0.05661156  0.98009707    -0.89900
O28         O  0.04730403  0.10185660  0.96848625    -0.83100
C29         C  0.07243034  0.09038860  0.97031256     1.12100
O30         O  0.50115201  0.90676155  0.91588976    -0.96100
Zr31       Zr  0.99900258  0.97448503  0.93626025     1.88900
O32         O  0.50223849  0.08281631  0.92085115    -0.72800
O33         O  0.08560388  0.98234110  0.95344838    -0.52100
O34         O  0.03863284  0.96349757  0.90287071    -0.96700
O35         O  0.45966572  0.95731988  0.90403982    -0.53900
O36         O  0.49746187  0.02464976  0.89582261    -0.73300
C37         C  0.49947186  0.06191542  0.89587672     0.99000
O38         O  0.50350053  0.13879069  0.99562296    -0.62100
O39         O  0.41757677  0.02383119  0.04408324    -0.56900
O40         O  0.45726086  0.10118358  0.96833795    -0.93600
O41         O  0.42510269  0.05573551  0.97949082    -0.92000
O42         O  0.46689003  0.04434028  0.09784804    -0.92400
O43         O  0.50890378  0.09138422  0.08428204    -0.91200
C44         C  0.43221746  0.08910607  0.96886883     1.17900
H45         H  0.46388397  0.96677219  0.06187934     0.33800
H46         H  0.04239196  0.07048184  0.02815496     0.44700
H47         H  0.46051809  0.03186578  0.94169130     0.38200
H48         H  0.03847837  0.92761958  0.96958794     0.34700
H49         H  0.04014655  0.03613352  0.11909148     0.26500
H50         H  0.10440453  0.98949690  0.96026433     0.32400
H51         H  0.04646546  0.98962367  0.89910849     0.38300
H52         H  0.47400730  0.04202825  0.11979238     0.32800
H53         H  0.40005008  0.00989468  0.04056848     0.31700
H54         H  0.41700646  0.96440708  0.95256976     0.33300
H55         H  0.46564923  0.95990811  0.88182094     0.32300
H56         H  0.00387881  0.10824450  0.06845973     0.36300
H57         H  0.48843146  0.14059013  0.01104690     0.29000
H58         H  0.00631816  0.84449283  0.02284095     0.33300
H59         H  0.00001841  0.90968081  0.89375308     0.36100
H60         H  0.42498345  0.01248877  0.06391013     0.28700
H61         H  0.01872723  0.14262883  0.00938328     0.41600
H62         H  0.08699350  0.03769715  0.04683324     0.31700
H63         H  0.05615624  0.00905944  0.09605613     0.39300
H64         H  0.44697120  0.97933294  0.90708462     0.31100
H65         H  0.08546630  0.95364447  0.95245440     0.31200
H66         H  0.01339028  0.85799517  0.98839363     0.31500
C67         C  0.49738602  0.21062132  0.65901466     0.45900
H68         H  0.49408783  0.17922869  0.65765400    -0.03100
C69         C  0.00361822  0.28571544  0.66198662     0.45900
H70         H  0.00781570  0.31682652  0.66432151    -0.03100
C71         C  0.02221120  0.22524317  0.63974727    -0.16800
C72         C  0.47297997  0.23315732  0.64449374    -0.16600
C73         C  0.00083451  0.22684852  0.69379226    -0.17000
C74         C  0.02620381  0.26495329  0.64238132    -0.16900
C75         C  0.47530570  0.27332709  0.64776571    -0.16500
C76         C  0.50389788  0.26534053  0.69572547    -0.16800
Zr77       Zr  0.49962480  0.42405981  0.97784359     2.17500
O78         O  0.99567698  0.35824513  0.99717558    -0.50900
O79         O  0.50301838  0.41099256  0.92215316    -0.74100
O80         O  0.45502010  0.40005270  0.96003462    -0.80900
O81         O  0.07584439  0.43620118  0.97591686    -0.82600
O82         O  0.42428875  0.44936753  0.96477861    -0.78300
O83         O  0.04220525  0.39203024  0.96524549    -0.89900
O84         O  0.50317045  0.46853824  0.89589677    -0.75900
O85         O  0.47263744  0.47445597  0.95525930    -0.85400
O86         O  0.02954334  0.47239962  0.95748012    -0.85000
O87         O  0.47152977  0.44720464  0.02037269    -0.71800
O88         O  0.02548448  0.44382159  0.02276396    -0.83900
Zr89       Zr  0.50190426  0.56742680  0.02276027     2.26400
Zr90       Zr  0.44539306  0.49895330  0.99697811     2.06300
Zr91       Zr  0.05582653  0.49205420  0.00238245     2.10000
Zr92       Zr  0.50309734  0.52170913  0.93542363     1.78800
O93         O  0.08373514  0.45906680  0.04210570    -0.92700
O94         O  0.46520379  0.53869244  0.90016283    -0.40500
O95         O  0.02956928  0.54432206  0.97971131    -0.77200
O96         O  0.47542285  0.54806729  0.97714393    -0.95900
O97         O  0.47126119  0.51964014  0.04189857    -0.89200
O98         O  0.02866792  0.51655998  0.04436616    -0.92000
C99         C  0.50347316  0.43098325  0.89662011     1.01700
C100        C  0.06723851  0.40376951  0.96446484     1.14700
C101        C  0.43140721  0.41561843  0.95529432     1.05500
O102        O  0.41566573  0.53573306  0.96136011    -0.94200
O103        O  0.42411671  0.55009876  0.02693444    -0.89900
O104        O  0.45762787  0.59361664  0.03976014    -0.83100
C105        C  0.43262909  0.58145909  0.04000713     1.12100
O106        O  0.99361562  0.40320824  0.08250635    -0.96100
Zr107      Zr  0.49825105  0.47013843  0.06505578     1.88900
O108        O  0.50390877  0.58113204  0.07855817    -0.72800
O109        O  0.40796514  0.46759617  0.02495381    -0.52100
O110        O  0.45733730  0.46220877  0.09699299    -0.96700
O111        O  0.03481521  0.45057781  0.09964034    -0.53900
O112        O  0.50104863  0.52345264  0.10450429    -0.73300
C113        C  0.50291524  0.56096264  0.10397832     0.99000
O114        O  0.00175131  0.63427665  0.00264071    -0.62100
O115        O  0.09550783  0.51620376  0.97385473    -0.56900
O116        O  0.04684683  0.59455415  0.03573253    -0.93600
O117        O  0.07844720  0.54742474  0.02625577    -0.92000
O118        O  0.04476165  0.53404513  0.90618813    -0.92400
O119        O  0.00457589  0.58768819  0.91334484    -0.91200
C120        C  0.07137882  0.58088833  0.03667396     1.17900
H121        H  0.04096277  0.46283017  0.94073457     0.33800
H122        H  0.46499512  0.56989694  0.96929492     0.44700
H123        H  0.04015724  0.52532776  0.06167731     0.38200
H124        H  0.45934884  0.42676652  0.02713400     0.34700
H125        H  0.47034457  0.52823721  0.87923998     0.26500
H126        H  0.40953515  0.47726021  0.04695058     0.32400
H127        H  0.46369092  0.46617522  0.11908222     0.38300
H128        H  0.03868576  0.54208815  0.88475653     0.32800
H129        H  0.10903335  0.49480881  0.97425003     0.31700
H130        H  0.10274443  0.46709434  0.03734885     0.33300
H131        H  0.02721928  0.45306208  0.12116634     0.32300
H132        H  0.51885699  0.60087888  0.92719651     0.36300
H133        H  0.01602261  0.63453260  0.98616167     0.29000
H134        H  0.49390939  0.34167812  0.97864674     0.33300
H135        H  0.49265920  0.40536645  0.10756796     0.36100
H136        H  0.08928387  0.51786749  0.95155051     0.28700
H137        H  0.48279999  0.63731225  0.99378609     0.41600
H138        H  0.39684929  0.52952189  0.96830183     0.31700
H139        H  0.44980889  0.52212803  0.90712625     0.39300
H140        H  0.04857637  0.47161334  0.09814528     0.31100
H141        H  0.39115228  0.47998554  0.01640753     0.31200
H142        H  0.47915029  0.35663530  0.00903819     0.31500
C143        C  0.49708415  0.78668194  0.33546511     0.45900
H144        H  0.49679734  0.81877787  0.33491819    -0.03100
C145        C  0.99680015  0.71070775  0.33720856     0.45900
H146        H  0.99660801  0.67861797  0.33821356    -0.03100
C147        C  0.02235227  0.76876266  0.35288322    -0.16800
C148        C  0.47199357  0.76955818  0.35261074    -0.16600
C149        C  0.99747387  0.76749586  0.30206994    -0.17000
C150        C  0.02144434  0.72882186  0.35520402    -0.16900
C151        C  0.47119559  0.72969155  0.35193167    -0.16500
C152        C  0.49800636  0.72782955  0.30295100    -0.16800
Zr153      Zr  0.24995650  0.92548307  0.47642318     2.17500
O154        O  0.24735581  0.85832713  0.49422381    -0.50900
O155        O  0.25393268  0.91256705  0.42080590    -0.74100
O156        O  0.20558592  0.90041386  0.45755244    -0.80900
O157        O  0.32677222  0.94211911  0.48142142    -0.82600
O158        O  0.17194814  0.94314918  0.47059524    -0.78300
O159        O  0.29534754  0.89593308  0.46924729    -0.89900
O160        O  0.25080751  0.97020486  0.39497081    -0.75900
O161        O  0.22136609  0.97447024  0.45429492    -0.85400
O162        O  0.27915356  0.97537718  0.45717057    -0.85000
O163        O  0.22076508  0.94690792  0.51856189    -0.71800
O164        O  0.27565883  0.94734860  0.52181546    -0.83900
Zr165      Zr  0.24772074  0.06963498  0.52232172     2.26400
Zr166      Zr  0.19347929  0.99803470  0.49600083     2.06300
Zr167      Zr  0.30400595  0.99857348  0.50219624     2.10000
Zr168      Zr  0.25057408  0.02332591  0.43450411     1.78800
O169        O  0.33484634  0.97707593  0.54428591    -0.92700
O170        O  0.21159531  0.03811266  0.40016218    -0.40500
O171        O  0.27597722  0.04827912  0.47936379    -0.77200
O172        O  0.22239769  0.04836553  0.47635201    -0.95900
O173        O  0.21829828  0.01982790  0.54132297    -0.89200
O174        O  0.27601304  0.02020168  0.54431345    -0.92000
C175        C  0.25256270  0.93272487  0.39541294     1.01700
C176        C  0.32027232  0.90844552  0.47090016     1.14700
C177        C  0.18047715  0.91191226  0.45765487     1.05500
O178        O  0.16619682  0.02902811  0.45459276    -0.94200
O179        O  0.17134590  0.05251429  0.52147150    -0.89900
O180        O  0.20301649  0.09887656  0.53274805    -0.83100
C181        C  0.17817061  0.08623110  0.53185967     1.12100
O182        O  0.24921238  0.90236321  0.57876507    -0.96100
Zr183      Zr  0.24657694  0.97052804  0.56326925     1.88900
O184        O  0.24776527  0.07932978  0.57935911    -0.72800
O185        O  0.15442758  0.97302661  0.52518569    -0.52100
O186        O  0.20533746  0.95192737  0.59163900    -0.96700
O187        O  0.28418455  0.95915598  0.60064312    -0.53900
O188        O  0.24259393  0.02082541  0.60381180    -0.73300
C189        C  0.24473922  0.05805056  0.60407029     0.99000
O190        O  0.24657563  0.13655626  0.50353342    -0.62100
O191        O  0.33992221  0.01934681  0.46638232    -0.56900
O192        O  0.29170300  0.10155979  0.53216963    -0.93600
O193        O  0.32505773  0.05754158  0.52234946    -0.92000
O194        O  0.29202856  0.03762781  0.40506810    -0.92400
O195        O  0.25084081  0.08913005  0.41327550    -0.91200
C196        C  0.31699215  0.09111593  0.53159905     1.17900
H197        H  0.29138381  0.96592833  0.44108741     0.33800
H198        H  0.21144822  0.06958228  0.46833718     0.44700
H199        H  0.28723644  0.03027947  0.56138429     0.38200
H200        H  0.20902245  0.92578961  0.52512115     0.34700
H201        H  0.21898891  0.03711188  0.37845060     0.26500
H202        H  0.15667280  0.98360890  0.54683207     0.32400
H203        H  0.20845914  0.96093631  0.61361881     0.38300
H204        H  0.28549982  0.04453566  0.38354014     0.32800
H205        H  0.35650241  0.00511472  0.47345943     0.31700
H206        H  0.32905789  0.95010792  0.54892631     0.33300
H207        H  0.27536416  0.95761698  0.62159778     0.32300
H208        H  0.25910382  0.10507959  0.43036444     0.36300
H209        H  0.26248467  0.13888377  0.48929470     0.29000
H210        H  0.24642298  0.84291098  0.47446792     0.33300
H211        H  0.24582481  0.90181177  0.60181498     0.36100
H212        H  0.33504913  0.00763821  0.44569264     0.28700
H213        H  0.23050907  0.13776918  0.48906976     0.41600
H214        H  0.15563440  0.00780796  0.44442395     0.31700
H215        H  0.19958930  0.01500535  0.40161654     0.39300
H216        H  0.29475622  0.98369863  0.60138087     0.31100
H217        H  0.13838234  0.98694165  0.51622905     0.31200
H218        H  0.22890575  0.85569035  0.50351358     0.31500
C219        C  0.25054800  0.71110948  0.16188774     0.45900
H220        H  0.24728005  0.67981592  0.16411405    -0.03100
C221        C  0.25393929  0.78595965  0.15914973     0.45900
H222        H  0.25613673  0.81753632  0.15843567    -0.03100
C223        C  0.27889429  0.72521047  0.14895646    -0.16800
C224        C  0.22802812  0.73019506  0.14054846    -0.16600
C225        C  0.24808554  0.73002828  0.19470660    -0.17000
C226        C  0.27959595  0.76558768  0.14605259    -0.16900
C227        C  0.23032526  0.77020692  0.13817754    -0.16500
C228        C  0.24989585  0.77001894  0.19348091    -0.16800
Zr229      Zr  0.25206939  0.43633525  0.52762813     2.17500
O230        O  0.25412638  0.36987536  0.50824071    -0.50900
O231        O  0.25394104  0.42468773  0.58368270    -0.74100
O232        O  0.29754133  0.41219484  0.54247646    -0.80900
O233        O  0.17463339  0.44836353  0.53371940    -0.82600
O234        O  0.32895718  0.45812362  0.52883848    -0.78300
O235        O  0.20892616  0.40468925  0.54199033    -0.89900
O236        O  0.25153767  0.48199505  0.60963264    -0.75900
O237        O  0.28089494  0.48672859  0.54710163    -0.85400
O238        O  0.22320424  0.48449042  0.54982882    -0.85000
O239        O  0.27685566  0.45847499  0.48211224    -0.71800
O240        O  0.22242499  0.45643830  0.48483248    -0.83900
Zr241      Zr  0.24639112  0.57961294  0.48169498     2.26400
Zr242      Zr  0.30471808  0.51033000  0.50222844     2.06300
Zr243      Zr  0.19397598  0.50512695  0.50786775     2.10000
Zr244      Zr  0.25198452  0.53435418  0.56932395     1.78800
O245        O  0.15651191  0.47699625  0.47700890    -0.92700
O246        O  0.29370380  0.54999875  0.59872182    -0.40500
O247        O  0.22204888  0.55698023  0.52745924    -0.77200
O248        O  0.27639901  0.55994407  0.52450221    -0.95900
O249        O  0.27549764  0.53148895  0.46020840    -0.89200
O250        O  0.21788816  0.52838068  0.46259070    -0.92000
C251        C  0.25239851  0.44448066  0.60919327     1.01700
C252        C  0.18379450  0.41572273  0.54406031     1.14700
C253        C  0.32210932  0.42578403  0.54158918     1.05500
O254        O  0.33751019  0.54554700  0.53526628    -0.94200
O255        O  0.32297598  0.56171652  0.47031955    -0.89900
O256        O  0.28973803  0.60731068  0.46321909    -0.83100
C257        C  0.31417687  0.59408733  0.45943810     1.12100
O258        O  0.24803505  0.41414508  0.42251434    -0.96100
Zr259      Zr  0.24719721  0.48158290  0.44010751     1.88900
O260        O  0.24308794  0.59200730  0.42550949    -0.72800
O261        O  0.33969796  0.48489992  0.46709251    -0.52100
O262        O  0.28699814  0.47005795  0.40718169    -0.96700
O263        O  0.20737095  0.46373366  0.40802932    -0.53900
O264        O  0.24499670  0.53418893  0.39991016    -0.73300
C265        C  0.24363772  0.57171806  0.40013214     0.99000
O266        O  0.24755155  0.64661705  0.50000588    -0.62100
O267        O  0.16487624  0.53405990  0.54776468    -0.56900
O268        O  0.20049109  0.60690871  0.47270260    -0.93600
O269        O  0.16998941  0.55922345  0.48407756    -0.92000
O270        O  0.21582119  0.54915901  0.60667694    -0.92400
O271        O  0.25080331  0.60171780  0.58672855    -0.91200
C272        C  0.17590909  0.59312648  0.47356329     1.17900
H273        H  0.21263932  0.47475086  0.56731905     0.33800
H274        H  0.28755276  0.58170554  0.53109517     0.44700
H275        H  0.20543261  0.53725084  0.44623900     0.38200
H276        H  0.28828640  0.43778916  0.47434699     0.34700
H277        H  0.28756140  0.55455471  0.62065321     0.26500
H278        H  0.35723067  0.48872919  0.47868457     0.32400
H279        H  0.28077471  0.47633510  0.38540203     0.38300
H280        H  0.22489925  0.54843492  0.62773231     0.32800
H281        H  0.14985606  0.51510268  0.55070941     0.31700
H282        H  0.14040737  0.49334936  0.48176902     0.33300
H283        H  0.21414595  0.46342341  0.38603475     0.32300
H284        H  0.24268609  0.61608223  0.56863700     0.36300
H285        H  0.23227189  0.64850197  0.51515451     0.29000
H286        H  0.25889796  0.35413273  0.52711939     0.33300
H287        H  0.25044302  0.41500728  0.39928953     0.36100
H288        H  0.17575271  0.53262912  0.56759637     0.28700
H289        H  0.26429214  0.64833108  0.51336265     0.41600
H290        H  0.33943874  0.52962330  0.55467144     0.31700
H291        H  0.30397163  0.52530823  0.59983329     0.39300
H292        H  0.19500227  0.48642590  0.40887821     0.31100
H293        H  0.33693210  0.45642721  0.46674804     0.31200
H294        H  0.27072450  0.36907240  0.49497648     0.31500
C295        C  0.24764043  0.28652263  0.83591493     0.45900
H296        H  0.24550445  0.31805501  0.83396384    -0.03100
C297        C  0.25208858  0.21202872  0.84002903     0.45900
H298        H  0.25354643  0.18119940  0.84525878    -0.03100
C299        C  0.27578156  0.27406577  0.84927712    -0.16800
C300        C  0.22520519  0.26744957  0.85677093    -0.16600
C301        C  0.24601536  0.26645876  0.80320518    -0.17000
C302        C  0.27800169  0.23412685  0.85250272    -0.16900
C303        C  0.22788805  0.22806725  0.85873159    -0.16500
C304        C  0.24685719  0.22560249  0.80475318    -0.16800
C305        C  0.26282131  0.41243978  0.69621052    -0.05000
C306        C  0.25364289  0.37355402  0.69499377     0.09100
C307        C  0.24239588  0.35908465  0.66666031    -0.02400
C308        C  0.24137818  0.38231831  0.63925540    -0.00700
C309        C  0.25148066  0.42129431  0.63960967    -0.04300
C310        C  0.26150394  0.43637619  0.66886719     0.02700
C311        C  0.25360679  0.34798996  0.72388676     0.09600
C312        C  0.23134488  0.31989317  0.66584022     0.35500
C313        C  0.27097991  0.47618826  0.67122441     0.38900
C314        C  0.23347389  0.35334616  0.74692142    -0.04700
C315        C  0.23064287  0.32659563  0.77200347     0.02500
C316        C  0.24769020  0.29293442  0.77429005    -0.04300
C317        C  0.26776566  0.28764349  0.75047975    -0.00500
C318        C  0.27089888  0.31528788  0.72588802    -0.03100
C319        C  0.21479168  0.38604161  0.74409264     0.36200
C320        C  0.28485478  0.25343918  0.74986022     0.39800
C321        C  0.20885067  0.33397425  0.79420049     0.38900
C322        C  0.29167745  0.30978307  0.70195941     0.35900
C323        C  0.27353262  0.42782520  0.72578959     0.36600
C324        C  0.22941056  0.36496149  0.61106457     0.39800
N325        N  0.19139397  0.34281207  0.81100097    -0.38300
N326        N  0.19991619  0.41205073  0.74185457    -0.39800
N327        N  0.29833653  0.22607281  0.74729032    -0.37600
N328        N  0.30812852  0.30545774  0.68276184    -0.40000
N329        N  0.22261910  0.28867332  0.66511348    -0.39800
N330        N  0.22012237  0.34924297  0.58929216    -0.37400
N331        N  0.27861683  0.50790449  0.67352070    -0.38400
N332        N  0.28188302  0.44013930  0.74946708    -0.40100
C333        C  0.22566885  0.60255280  0.31463531    -0.05000
C334        C  0.24074513  0.63727427  0.31160998     0.09100
C335        C  0.25642769  0.65079804  0.33742152    -0.02400
C336        C  0.25723842  0.62976499  0.36612422    -0.00700
C337        C  0.24281846  0.59391411  0.36928108    -0.04300
C338        C  0.22664360  0.58095962  0.34322028     0.02700
C339        C  0.24125609  0.65919900  0.28082154     0.09600
C340        C  0.27182905  0.68674716  0.33427155     0.35500
C341        C  0.20952833  0.54678057  0.34608158     0.38900
C342        C  0.22160704  0.68781654  0.27389775    -0.04700
C343        C  0.22348778  0.71054099  0.24600310     0.02500
C344        C  0.24558370  0.70553030  0.22466979    -0.04300
C345        C  0.26507002  0.67585532  0.23196106    -0.00500
C346        C  0.26277371  0.65309111  0.25969381    -0.03100
C347        C  0.19944107  0.69402046  0.29590157     0.36200
C348        C  0.28916577  0.66951012  0.21313586     0.39800
C349        C  0.20187982  0.73814681  0.23983570     0.38900
C350        C  0.28323735  0.62380134  0.26732619     0.35900
C351        C  0.20895257  0.58929576  0.28820593     0.36600
C352        C  0.27257384  0.64644448  0.39230007     0.39800
N353        N  0.18361396  0.75928362  0.23745278    -0.38300
N354        N  0.18178476  0.69893487  0.31348395    -0.39800
N355        N  0.30972484  0.66220927  0.20118477    -0.37600
N356        N  0.29948131  0.60056814  0.27372253    -0.40000
N357        N  0.28406014  0.71536113  0.33157800    -0.39800
N358        N  0.28442849  0.66185398  0.41252318    -0.37400
N359        N  0.19538868  0.51987206  0.34770754    -0.38400
N360        N  0.19557498  0.57895697  0.26706651    -0.40100
C361        C  0.26823466  0.90245548  0.30994526    -0.05000
C362        C  0.25470440  0.86637668  0.30784472     0.09100
C363        C  0.24065082  0.85182656  0.33421356    -0.02400
C364        C  0.23962778  0.87348955  0.36249233    -0.00700
C365        C  0.25289275  0.91035946  0.36484391    -0.04300
C366        C  0.26754564  0.92425404  0.33829421     0.02700
C367        C  0.25469068  0.84357890  0.27764123     0.09600
C368        C  0.22743301  0.81402974  0.33221543     0.35500
C369        C  0.28345272  0.95971449  0.34043802     0.38900
C370        C  0.27426558  0.81441127  0.27268053    -0.04700
C371        C  0.27306461  0.79115750  0.24514196     0.02500
C372        C  0.25148697  0.79573916  0.22256283    -0.04300
C373        C  0.23180800  0.82532948  0.22810144    -0.00500
C374        C  0.23390088  0.84957401  0.25498964    -0.03100
C375        C  0.29581718  0.80854174  0.29609363     0.36200
C376        C  0.20764777  0.82965713  0.20852215     0.39800
C377        C  0.29489477  0.76360328  0.24021601     0.38900
C378        C  0.21419154  0.88053091  0.25990448     0.35900
C379        C  0.28334166  0.91668472  0.28292192     0.36600
C380        C  0.22480292  0.85694223  0.38887889     0.39800
N381        N  0.31305098  0.74231295  0.23800908    -0.38300
N382        N  0.31297612  0.80394254  0.31480595    -0.39800
N383        N  0.18710751  0.83552735  0.19552888    -0.37600
N384        N  0.19866060  0.90536480  0.26386690    -0.40000
N385        N  0.21708576  0.78382096  0.33058965    -0.39800
N386        N  0.21306188  0.84236518  0.40937604    -0.37400
N387        N  0.29654772  0.98771310  0.34171639    -0.38400
N388        N  0.29542318  0.92780682  0.26129764    -0.40100
C389        C  0.26700111  0.12065437  0.67375183    -0.05000
C390        C  0.24198222  0.12645414  0.68967795     0.09100
C391        C  0.21811786  0.10709955  0.67854812    -0.02400
C392        C  0.21908571  0.08367087  0.65109060    -0.00700
C393        C  0.24404239  0.07852658  0.63502244    -0.04300
C394        C  0.26815313  0.09579204  0.64724750     0.02700
C395        C  0.24135519  0.15063712  0.71947853     0.09600
C396        C  0.19250852  0.11138463  0.69528857     0.35500
C397        C  0.29437702  0.08643242  0.63335317     0.38900
C398        C  0.22729986  0.18617642  0.72051342    -0.04700
C399        C  0.22680305  0.20855947  0.74872441     0.02500
C400        C  0.24229875  0.19733628  0.77632637    -0.04300
C401        C  0.25250620  0.15807411  0.77589303    -0.00500
C402        C  0.25326432  0.13631392  0.74746776    -0.03100
C403        C  0.21245612  0.19907886  0.69247264     0.36200
C404        C  0.25900410  0.13614260  0.80418208     0.39800
C405        C  0.20729372  0.24010932  0.74935079     0.38900
C406        C  0.26552923  0.09781073  0.74724075     0.35900
C407        C  0.29160426  0.14048278  0.68458057     0.36600
C408        C  0.19428110  0.06546871  0.63900046     0.39800
N409        N  0.19117300  0.26464739  0.74764838    -0.38300
N410        N  0.20029941  0.20858317  0.67013858    -0.39800
N411        N  0.26402652  0.11624323  0.82558489    -0.37600
N412        N  0.27536120  0.06726110  0.74704574    -0.40000
N413        N  0.17203869  0.11510490  0.70852495    -0.39800
N414        N  0.17444676  0.05109498  0.62932902    -0.37400
N415        N  0.31530121  0.07838047  0.62254086    -0.38400
N416        N  0.31122310  0.15631161  0.69324102    -0.40100
C417        C  0.07457935  0.65175638  0.37963684    -0.05000
C418        C  0.08272329  0.66523693  0.40972108     0.09100
C419        C  0.06906835  0.69682400  0.42333839    -0.02400
C420        C  0.04812110  0.71610674  0.40647865    -0.00700
C421        C  0.04136423  0.70511045  0.37483961    -0.04300
C422        C  0.05425109  0.67170110  0.36205584     0.02700
C423        C  0.10667221  0.64751006  0.42668157     0.09600
C424        C  0.07686286  0.70959264  0.45494175     0.35500
C425        C  0.04804039  0.65830775  0.33030323     0.38900
C426        C  0.13345948  0.65552226  0.41643191    -0.04700
C427        C  0.15632213  0.64028208  0.43290814     0.02500
C428        C  0.15253693  0.61606083  0.45977073    -0.04300
C429        C  0.12537403  0.60976555  0.47074469    -0.00500
C430        C  0.10268155  0.62486429  0.45395656    -0.03100
C431        C  0.13732681  0.67878879  0.38820079     0.36200
C432        C  0.12027580  0.58827175  0.49964314     0.39800
C433        C  0.18346061  0.64934590  0.42134975     0.38900
C434        C  0.07501909  0.61674726  0.46453513     0.35900
C435        C  0.08760699  0.61754196  0.36660817     0.36600
C436        C  0.03391286  0.74701922  0.42263536     0.39800
N437        N  0.20482128  0.65758907  0.41177293    -0.38300
N438        N  0.13996428  0.69681407  0.36533798    -0.39800
N439        N  0.11548644  0.57123928  0.52254579    -0.37600
N440        N  0.05296077  0.61049829  0.47298343    -0.40000
N441        N  0.08308758  0.71902906  0.48028398    -0.39800
N442        N  0.02400832  0.77173504  0.43705686    -0.37400
N443        N  0.04388920  0.64633261  0.30514441    -0.38400
N444        N  0.09805641  0.59027653  0.35629477    -0.40100
C445        C  0.36705244  0.61688543  0.39708351    -0.05000
C446        C  0.37663678  0.65342105  0.40720768     0.09100
C447        C  0.36407828  0.67209371  0.43301677    -0.02400
C448        C  0.34276721  0.65349368  0.44953376    -0.00700
C449        C  0.33385735  0.61630649  0.44009671    -0.04300
C450        C  0.34560099  0.59849797  0.41329878     0.02700
C451        C  0.40093076  0.67112457  0.39155267     0.09600
C452        C  0.37359226  0.70988310  0.44326417     0.35500
C453        C  0.33571445  0.56107386  0.40235291     0.38900
C454        C  0.39738689  0.69713168  0.36620233    -0.04700
C455        C  0.42033753  0.71509586  0.35245172     0.02500
C456        C  0.44719734  0.70643215  0.36356615    -0.04300
C457        C  0.45063131  0.67628308  0.38614265    -0.00500
C458        C  0.42753505  0.65960583  0.40068931    -0.03100
C459        C  0.37015248  0.70378313  0.35328640     0.36200
C460        C  0.47761212  0.66264896  0.39541824     0.39800
C461        C  0.41615593  0.74049967  0.32547605     0.38900
C462        C  0.43101974  0.63010487  0.42494784     0.35900
C463        C  0.37996749  0.59773978  0.37054728     0.36600
C464        C  0.33085957  0.67175282  0.47706233     0.39800
N465        N  0.41212498  0.76050348  0.30393096    -0.38300
N466        N  0.34848590  0.70855787  0.34262790    -0.39800
N467        N  0.49865931  0.65060821  0.40352278    -0.37600
N468        N  0.43365415  0.60640560  0.44416512    -0.40000
N469        N  0.38078315  0.74010031  0.45187766    -0.39800
N470        N  0.32132308  0.68615196  0.49907804    -0.37400
N471        N  0.32803070  0.53123312  0.39336252    -0.38400
N472        N  0.39050556  0.58254747  0.34952434    -0.40100
C473        C  0.42842228  0.80732735  0.42127369    -0.05000
C474        C  0.41156390  0.83470241  0.40591215     0.09100
C475        C  0.41644598  0.84390491  0.37388642    -0.02400
C476        C  0.43720889  0.82443293  0.35695622    -0.00700
C477        C  0.45216021  0.79379101  0.37138889    -0.04300
C478        C  0.44795147  0.78620920  0.40408916     0.02700
C479        C  0.38807047  0.85251697  0.42343340     0.09600
C480        C  0.39996403  0.87344486  0.35838096     0.35500
C481        C  0.46333093  0.75676938  0.42100127     0.38900
C482        C  0.39298703  0.87941775  0.44790423    -0.04700
C483        C  0.37108010  0.89361495  0.46606863     0.02500
C484        C  0.34340069  0.88451935  0.45775775    -0.04300
C485        C  0.33870664  0.85647815  0.43363165    -0.00500
C486        C  0.36097291  0.84019640  0.41713025    -0.03100
C487        C  0.42071424  0.89303985  0.45408634     0.36200
C488        C  0.31114104  0.84440389  0.42497467     0.39800
C489        C  0.37754130  0.91657411  0.49396260     0.38900
C490        C  0.35595219  0.81091685  0.39317575     0.35900
C491        C  0.42582708  0.80096390  0.45511894     0.36600
C492        C  0.44250534  0.83555096  0.32449872     0.39800
N493        N  0.38305532  0.93455915  0.51625528    -0.38300
N494        N  0.44280305  0.90395443  0.45894199    -0.39800
N495        N  0.28928124  0.83435253  0.41790298    -0.37600
N496        N  0.35186063  0.78769970  0.37397064    -0.40000
N497        N  0.38668144  0.89689510  0.34602522    -0.39800
N498        N  0.44655593  0.84500272  0.29867876    -0.37400
N499        N  0.47403958  0.73325518  0.43624681    -0.38400
N500        N  0.42415925  0.79620728  0.48214543    -0.40100
C501        C  0.06456455  0.84644941  0.39695224    -0.05000
C502        C  0.09153578  0.83390366  0.39124057     0.09100
C503        C  0.09596768  0.80302110  0.37010456    -0.02400
C504        C  0.07352777  0.78322465  0.35627226    -0.00700
C505        C  0.04619657  0.79318456  0.36437928    -0.04300
C506        C  0.04199971  0.82642411  0.38359414     0.02700
C507        C  0.11525906  0.85278846  0.40806102     0.09600
C508        C  0.12379330  0.79174087  0.36252909     0.35500
C509        C  0.01469603  0.83984151  0.39100847     0.38900
C510        C  0.11915590  0.84693550  0.44092443    -0.04700
C511        C  0.14117476  0.86505702  0.45700450     0.02500
C512        C  0.15956901  0.88891110  0.44032826    -0.04300
C513        C  0.15556882  0.89507933  0.40753718    -0.00500
C514        C  0.13348190  0.87712727  0.39146240    -0.03100
C515        C  0.09972933  0.82364530  0.45846387     0.36200
C516        C  0.17344898  0.92128669  0.39048106     0.39800
C517        C  0.14444427  0.86011502  0.49091458     0.38900
C518        C  0.12883981  0.88499774  0.35809381     0.35900
C519        C  0.06003977  0.87975154  0.41725998     0.36600
C520        C  0.07899813  0.75387697  0.33263132     0.39800
N521        N  0.14693976  0.85626657  0.51799366    -0.38300
N522        N  0.08378970  0.80586292  0.47248092    -0.39800
N523        N  0.18747295  0.94213011  0.37649646    -0.37600
N524        N  0.12519074  0.89132725  0.33148501    -0.40000
N525        N  0.14606119  0.78340184  0.35632242    -0.39800
N526        N  0.08435581  0.73057196  0.31401411    -0.37400
N527        N  0.49309670  0.85363010  0.39644003    -0.38400
N528        N  0.05643797  0.90607188  0.43368307    -0.40100
C529        C  0.12157319  0.37683002  0.90458864    -0.05000
C530        C  0.12822448  0.33861339  0.91369548     0.09100
C531        C  0.11379284  0.32084064  0.93872563    -0.02400
C532        C  0.09335089  0.34159573  0.95507507    -0.00700
C533        C  0.08738945  0.38031767  0.94659746    -0.04300
C534        C  0.10111798  0.39744434  0.92071239     0.02700
C535        C  0.15265083  0.31931927  0.89930464     0.09600
C536        C  0.12073733  0.28183408  0.94865849     0.35500
C537        C  0.09406248  0.43630895  0.91023716     0.38900
C538        C  0.17838337  0.32326351  0.91406439    -0.04700
C539        C  0.20222458  0.30893319  0.89942441     0.02500
C540        C  0.20055417  0.28803385  0.87051607    -0.04300
C541        C  0.17416699  0.28308050  0.85647386    -0.00500
C542        C  0.15081735  0.30069828  0.86979125    -0.03100
C543        C  0.18031264  0.34357419  0.94414780     0.36200
C544        C  0.17052037  0.26056727  0.82788252     0.39800
C545        C  0.22788472  0.31655172  0.91523672     0.38900
C546        C  0.12526951  0.30200611  0.85211151     0.35900
C547        C  0.13664033  0.39550119  0.87931983     0.36600
C548        C  0.07941087  0.32377161  0.98154455     0.39800
N549        N  0.24658742  0.32583415  0.93039381    -0.38300
N550        N  0.18164725  0.35981706  0.96806618    -0.39800
N551        N  0.16606986  0.24257081  0.80534606    -0.37600
N552        N  0.10517530  0.30414876  0.83750221    -0.40000
N553        N  0.12600900  0.25083210  0.95725838    -0.39800
N554        N  0.06834804  0.30956950  0.00271983    -0.37400
N555        N  0.08861899  0.46723061  0.90153995    -0.38400
N556        N  0.14879099  0.41031362  0.85925532    -0.40100
C557        C  0.37334082  0.34727047  0.93461791    -0.05000
C558        C  0.36803124  0.35742844  0.90276025     0.09100
C559        C  0.38448108  0.38557853  0.88781603    -0.02400
C560        C  0.40585150  0.40380198  0.90481305    -0.00700
C561        C  0.41083945  0.39389152  0.93678766    -0.04300
C562        C  0.39483668  0.36528483  0.95153257     0.02700
C563        C  0.34441431  0.33968982  0.88529412     0.09600
C564        C  0.37894669  0.39641548  0.85518196     0.35500
C565        C  0.39998772  0.35528922  0.98443162     0.38900
C566        C  0.31791623  0.35487034  0.88893758    -0.04700
C567        C  0.29543461  0.33762978  0.87299421     0.02500
C568        C  0.29908349  0.30241359  0.85592557    -0.05900
C569        C  0.32622916  0.29274147  0.84740983    -0.00500
C570        C  0.34875918  0.31031967  0.86286209    -0.03100
C571        C  0.31396527  0.38867045  0.90886492     0.36200
C572        C  0.33122755  0.26903923  0.81990284     0.39800
C573        C  0.27004736  0.35914048  0.87177621     0.38900
C574        C  0.37650431  0.29924393  0.85500991     0.35900
C575        C  0.35612494  0.31949349  0.95064020     0.36600
C576        C  0.42283749  0.43249890  0.88925192     0.39800
N577        N  0.25048843  0.37808781  0.87043011    -0.38300
N578        N  0.31102039  0.41559094  0.92482218    -0.39800
N579        N  0.33653979  0.25177413  0.79735543    -0.37600
N580        N  0.39877655  0.29130649  0.84857564    -0.40000
N581        N  0.37450643  0.40495870  0.82914291    -0.39800
N582        N  0.43633387  0.45506766  0.87638121    -0.37400
N583        N  0.40406815  0.34732055  0.01066436    -0.38400
N584        N  0.34266417  0.29801565  0.96464388    -0.40100
C585        C  0.11798445  0.66493086  0.06048057    -0.05000
C586        C  0.13568114  0.64652748  0.08250136     0.09100
C587        C  0.13096239  0.60754680  0.09098308    -0.02400
C588        C  0.10962666  0.58646055  0.07637249    -0.00700
C589        C  0.09306480  0.60405527  0.05265859    -0.04300
C590        C  0.09709363  0.64355900  0.04510146     0.02700
C591        C  0.15928405  0.66792136  0.09717965     0.09600
C592        C  0.14765616  0.58952890  0.11553976     0.35500
C593        C  0.08028263  0.66208971  0.02094745     0.38900
C594        C  0.15479802  0.69519854  0.12112332    -0.04700
C595        C  0.17701645  0.71522909  0.13517139     0.02500
C596        C  0.20444385  0.70714309  0.12636590    -0.04300
C597        C  0.20868991  0.67810480  0.10304096    -0.00500
C598        C  0.18623864  0.65921880  0.08828944    -0.03100
C599        C  0.12703828  0.70205362  0.13159531     0.36200
C600        C  0.23553703  0.66879575  0.09142678     0.39800
C601        C  0.17071509  0.74455228  0.15821961     0.38900
C602        C  0.19083699  0.63077070  0.06351781     0.35900
C603        C  0.12030635  0.70619774  0.05455952     0.36600
C604        C  0.10413369  0.54709318  0.08687831     0.39800
N605        N  0.16320286  0.76780241  0.17571456    -0.38300
N606        N  0.10476035  0.70715166  0.13959920    -0.39800
N607        N  0.25538941  0.65890663  0.07916529    -0.37600
N608        N  0.19462128  0.60805262  0.04389615    -0.40000
N609        N  0.16098030  0.57535235  0.13517703    -0.39800
N610        N  0.09991976  0.51583398  0.09565834    -0.37400
N611        N  0.06703738  0.67707684  0.00164369    -0.38400
N612        N  0.12089861  0.73931536  0.05013393    -0.40100
C613        C  0.35193066  0.69477436  0.12588048    -0.05000
C614        C  0.34686550  0.66036456  0.10900206     0.09100
C615        C  0.32124952  0.64207959  0.11185475    -0.02400
C616        C  0.30006494  0.65983101  0.12924139    -0.00700
C617        C  0.30320476  0.69865884  0.14068319    -0.04300
C618        C  0.33073840  0.71249806  0.14317228     0.02700
C619        C  0.36950396  0.64100109  0.09128308     0.09600
C620        C  0.31688784  0.60437873  0.09727762     0.35500
C621        C  0.33834547  0.74195867  0.16607418     0.38900
C622        C  0.38774319  0.61581370  0.10730187    -0.04700
C623        C  0.40850427  0.59655581  0.09049469     0.02500
C624        C  0.41201823  0.60379751  0.05786174    -0.04300
C625        C  0.39379849  0.62892109  0.04186101    -0.00500
C626        C  0.37230123  0.64692824  0.05841778    -0.03100
C627        C  0.38457683  0.60884879  0.14093458     0.36200
C628        C  0.39673722  0.63527768  0.00814369     0.39800
C629        C  0.42557397  0.56816271  0.10659455     0.38900
C630        C  0.35224886  0.66991130  0.04130559     0.35900
C631        C  0.37913097  0.71182475  0.12540001     0.36600
C632        C  0.27783600  0.63486001  0.13908546     0.39800
N633        N  0.43894145  0.54540647  0.11965803    -0.38300
N634        N  0.38202013  0.60328258  0.16775303    -0.39800
N635        N  0.39912450  0.64023659  0.98122767    -0.37600
N636        N  0.33605152  0.68740804  0.02714987    -0.40000
N637        N  0.31339084  0.57438392  0.08558911    -0.39800
N638        N  0.26089701  0.61331401  0.14676411    -0.37400
N639        N  0.34561516  0.76509671  0.18414115    -0.38400
N640        N  0.40093224  0.72503032  0.12465435    -0.40100
C641        C  0.02064785  0.59176465  0.18863111    -0.05000
C642        C  0.50571125  0.62680834  0.19182952     0.09100
C643        C  0.48878799  0.63882520  0.16657101    -0.02400
C644        C  0.48868775  0.61840221  0.13769561    -0.00700
C645        C  0.50379019  0.58328875  0.13452896    -0.04300
C646        C  0.01974423  0.57030951  0.16005090     0.02700
C647        C  0.50605279  0.65004898  0.22185947     0.09600
C648        C  0.47086543  0.67201558  0.17067061     0.35500
C649        C  0.03774312  0.53723003  0.15658919     0.38900
C650        C  0.02335793  0.68031962  0.22549467    -0.04700
C651        C  0.02157682  0.70547783  0.25184589     0.02500
C652        C  0.50108617  0.70086620  0.27483201    -0.04300
C653        C  0.48368108  0.66781296  0.27122970    -0.00500
C654        C  0.48650636  0.64250691  0.24519688    -0.03100
C655        C  0.04367312  0.68707493  0.20135789     0.36200
C656        C  0.46156457  0.66000729  0.29288572     0.39800
C657        C  0.04169332  0.73625806  0.25487116     0.38900
C658        C  0.46856925  0.60904886  0.24166140     0.35900
C659        C  0.03830877  0.57943839  0.21452161     0.36600
C660        C  0.47349647  0.63503388  0.11133937     0.39800
N661        N  0.05801309  0.76066215  0.25588183    -0.38300
N662        N  0.05974928  0.69218476  0.18189346    -0.39800
N663        N  0.44349117  0.65158939  0.30900328    -0.37600
N664        N  0.45436068  0.58233411  0.23869110    -0.40000
N665        N  0.45624073  0.69800438  0.17420255    -0.39800
N666        N  0.46167542  0.65016684  0.09092959    -0.37400
N667        N  0.05264198  0.51130758  0.15442564    -0.38400
N668        N  0.05249529  0.56960609  0.23511079    -0.40100
C669        C  0.07215381  0.33334624  0.59298202    -0.05000
C670        C  0.09858926  0.32391625  0.60414956     0.09100
C671        C  0.10142499  0.29633366  0.62846307    -0.02400
C672        C  0.07803637  0.27758626  0.64103808    -0.00700
C673        C  0.05119034  0.28624726  0.62960386    -0.04300
C674        C  0.04872707  0.31472695  0.60540863     0.02700
C675        C  0.12307689  0.34536988  0.59153368     0.09600
C676        C  0.12856526  0.28833469  0.64125943     0.35500
C677        C  0.02266314  0.32390561  0.59095933     0.38900
C678        C  0.12779421  0.38412803  0.60082654    -0.04700
C679        C  0.14859909  0.40621064  0.58641295     0.02500
C680        C  0.16401461  0.39044626  0.56128420    -0.04300
C681        C  0.16043022  0.35090303  0.55333164    -0.00500
C682        C  0.14066498  0.32812814  0.56920193    -0.03100
C683        C  0.11120138  0.40115809  0.62548714     0.36200
C684        C  0.17646444  0.33387986  0.52822637     0.39800
C685        C  0.15487791  0.44461259  0.59857449     0.38900
C686        C  0.13919005  0.28676757  0.56333024     0.35900
C687        C  0.06906698  0.36285065  0.56859399     0.36600
C688        C  0.08236877  0.25009163  0.66629236     0.39800
N689        N  0.15994443  0.47490087  0.60893337    -0.38300
N690        N  0.09782698  0.41453898  0.64510714    -0.39800
N691        N  0.18917520  0.32029334  0.50811224    -0.37600
N692        N  0.13906526  0.25357490  0.55918527    -0.40000
N693        N  0.15028034  0.28230925  0.65135401    -0.39800
N694        N  0.08817692  0.22876750  0.68633466    -0.37400
N695        N  0.00327273  0.33301587  0.57691994    -0.38400
N696        N  0.06659843  0.38663222  0.54941495    -0.40100
C697        C  0.40343149  0.31063881  0.62471272    -0.05000
C698        C  0.40977645  0.34429465  0.60748675     0.09100
C699        C  0.43635186  0.35987580  0.60976397    -0.02400
C700        C  0.45705024  0.34007161  0.62698958    -0.00700
C701        C  0.45222454  0.30176070  0.63875790    -0.04300
C702        C  0.42415292  0.29057092  0.64148564     0.02700
C703        C  0.38753270  0.36575186  0.59019218     0.09600
C704        C  0.44213926  0.39713998  0.59515778     0.35500
C705        C  0.41566557  0.26175407  0.66439684     0.38900
C706        C  0.36886049  0.38873420  0.60721472    -0.04700
C707        C  0.34748133  0.40815787  0.59116755     0.02500
C708        C  0.34408614  0.40395531  0.55814168    -0.04300
C709        C  0.36274618  0.38108615  0.54107963    -0.00500
C710        C  0.38456896  0.36227339  0.55703747    -0.03100
C711        C  0.37155820  0.39225506  0.64133800     0.36200
C712        C  0.35934601  0.37671006  0.50715839     0.39800
C713        C  0.32959143  0.43362035  0.60864242     0.38900
C714        C  0.40397529  0.33938752  0.53931834     0.35900
C715        C  0.37520525  0.29742652  0.62571399     0.36600
C716        C  0.48077740  0.36266132  0.63643481     0.39800
N717        N  0.31582408  0.45425689  0.62297660    -0.38300
N718        N  0.37344119  0.39485400  0.66857270    -0.39800
N719        N  0.35659802  0.37303140  0.48010014    -0.37600
N720        N  0.41946213  0.32147451  0.52484729    -0.40000
N721        N  0.44679268  0.42680510  0.58347938    -0.39800
N722        N  0.99846900  0.38285831  0.64162678    -0.37400
N723        N  0.40760871  0.23926023  0.68241991    -0.38400
N724        N  0.35245603  0.28800172  0.62630704    -0.40100
C725        C  0.41902161  0.20688054  0.58040777    -0.05000
C726        C  0.40541829  0.17535324  0.59435928     0.09100
C727        C  0.41436099  0.16148977  0.62403336    -0.02400
C728        C  0.43672244  0.17931419  0.63992231    -0.00700
C729        C  0.45050139  0.21172835  0.62627445    -0.04300
C730        C  0.44184532  0.22409872  0.59560649     0.02700
C731        C  0.38221076  0.15600979  0.57697482     0.09600
C732        C  0.39996327  0.12929601  0.63864158     0.35500
C733        C  0.45561783  0.25486445  0.57891581     0.38900
C734        C  0.38761102  0.13330604  0.55004336    -0.04700
C735        C  0.36595259  0.11540599  0.53324868     0.02500
C736        C  0.33859827  0.11832177  0.54410344    -0.04300
C737        C  0.33307361  0.14407364  0.56950050    -0.00500
C738        C  0.35486555  0.16207657  0.58620328    -0.03100
C739        C  0.41566692  0.12789783  0.53978873     0.36200
C740        C  0.30515828  0.15236919  0.57882472     0.39800
C741        C  0.37201918  0.09591692  0.50375011     0.38900
C742        C  0.34920107  0.18590977  0.61361880     0.35900
C743        C  0.40905782  0.22201147  0.55029012     0.36600
C744        C  0.44403651  0.16489214  0.67108921     0.39800
N745        N  0.37756223  0.08130071  0.48003818    -0.38300
N746        N  0.43799357  0.12365029  0.53151585    -0.39800
N747        N  0.28295463  0.15943764  0.58625014    -0.37600
N748        N  0.34461795  0.20424602  0.63585027    -0.40000
N749        N  0.38830549  0.10394477  0.65048308    -0.39800
N750        N  0.44907658  0.15187772  0.69570595    -0.37400
N751        N  0.46457823  0.27972787  0.56386637    -0.38400
N752        N  0.40097866  0.23378666  0.52630371    -0.40100
C753        C  0.13642715  0.15264505  0.58597647    -0.05000
C754        C  0.10989438  0.14814605  0.57296701     0.09100
C755        C  0.10619525  0.12613086  0.54519916    -0.02400
C756        C  0.12876571  0.10841804  0.53057827    -0.00700
C757        C  0.15543607  0.11116328  0.54424730    -0.04300
C758        C  0.15921370  0.13491702  0.57142959     0.02700
C759        C  0.08550455  0.16594940  0.58858872     0.09600
C760        C  0.07878801  0.12061563  0.53221305     0.35500
C761        C  0.18631835  0.14117815  0.58485081     0.38900
C762        C  0.07228351  0.19820665  0.57479149    -0.04700
C763        C  0.04847947  0.21343580  0.58866490     0.02500
C764        C  0.03920562  0.19932761  0.61812308    -0.04300
C765        C  0.04814916  0.16151608  0.62662111    -0.00500
C766        C  0.07263361  0.14661094  0.61383562    -0.03100
C767        C  0.08213063  0.21446880  0.54531747     0.36200
C768        C  0.02994352  0.13438799  0.64202695     0.39800
C769        C  0.03051448  0.23660453  0.56903536     0.38900
C770        C  0.08402226  0.11056104  0.62586473     0.35900
C771        C  0.14002088  0.17428841  0.61513539     0.36600
C772        C  0.12421257  0.08831258  0.50084016     0.39800
N773        N  0.01684569  0.25304968  0.55102428    -0.38300
N774        N  0.08951346  0.22738883  0.52158852    -0.39800
N775        N  0.01567929  0.11163904  0.65359562    -0.37600
N776        N  0.09330283  0.08199746  0.63560222    -0.40000
N777        N  0.05689450  0.11626264  0.52203532    -0.39800
N778        N  0.11991554  0.07266647  0.47709162    -0.37400
N779        N  0.20789152  0.14700736  0.59545226    -0.38400
N780        N  0.14268858  0.19106307  0.63866598    -0.40100
C781        C  0.02474989  0.30447805  0.77821815    -0.05000
C782        C  0.50949601  0.33730125  0.78133368     0.09100
C783        C  0.49192909  0.34753413  0.75629277    -0.02400
C784        C  0.48849698  0.32254888  0.73008633    -0.00700
C785        C  0.50571254  0.28949519  0.72596011    -0.04300
C786        C  0.02497384  0.28295123  0.74971196     0.02700
C787        C  0.50913222  0.36084621  0.81124229     0.09600
C788        C  0.47597433  0.38303092  0.75857003     0.35500
C789        C  0.04567513  0.25336307  0.74657063     0.38900
C790        C  0.02369121  0.39706411  0.81320207    -0.04700
C791        C  0.02087617  0.42084085  0.84030224     0.02500
C792        C  0.50451937  0.40810903  0.86633746    -0.04300
C793        C  0.48975228  0.37252785  0.86347000    -0.00500
C794        C  0.49150329  0.34988581  0.83579788    -0.03100
C795        C  0.04191330  0.40863606  0.78796909     0.36200
C796        C  0.47248093  0.35837048  0.88871035     0.39800
C797        C  0.03616937  0.45686992  0.84205936     0.38900
C798        C  0.47436896  0.31564009  0.83204026     0.35900
C799        C  0.03904967  0.28983015  0.80596776     0.36600
C800        C  0.46453216  0.32939029  0.71062879     0.39800
N801        N  0.04846049  0.48561927  0.84264513    -0.38300
N802        N  0.05650893  0.41794285  0.76791604    -0.39800
N803        N  0.45892759  0.34542565  0.90839326    -0.37600
N804        N  0.46054894  0.28857467  0.82883183    -0.40000
N805        N  0.46348664  0.41144289  0.76051010    -0.39800
N806        N  0.44394103  0.33739404  0.69855891    -0.37400
N807        N  0.06311551  0.23070735  0.74631482    -0.38400
N808        N  0.04956522  0.27703969  0.82829483    -0.40100
C809        C  0.39390738  0.15934425  0.91345884    -0.05000
C810        C  0.36636606  0.15050405  0.92020504     0.09100
C811        C  0.36050728  0.12411764  0.94468810    -0.02400
C812        C  0.38194544  0.10739414  0.96273664    -0.00700
C813        C  0.40984434  0.11358238  0.95434669    -0.04300
C814        C  0.41551136  0.13998207  0.92935519     0.02700
C815        C  0.34350825  0.17098652  0.90283398     0.09600
C816        C  0.33224108  0.11375386  0.95104235     0.35500
C817        C  0.44330264  0.14648105  0.91861086     0.38900
C818        C  0.33721879  0.16215246  0.87108788    -0.04700
C819        C  0.31667588  0.18318238  0.85440056     0.02500
C820        C  0.30164055  0.21324575  0.86941290    -0.04300
C821        C  0.30910885  0.22248436  0.90118803    -0.00500
C822        C  0.32913860  0.20082611  0.91788206    -0.03100
C823        C  0.35214557  0.13122017  0.85560125     0.36200
C824        C  0.29810246  0.25576114  0.91700588     0.39800
C825        C  0.31383218  0.17612000  0.82088813     0.38900
C826        C  0.33504575  0.20892321  0.95101175     0.35900
C827        C  0.40004174  0.18865476  0.89001848     0.36600
C828        C  0.37478030  0.08462259  0.99037174     0.39800
N829        N  0.31368332  0.16942665  0.79408275    -0.38300
N830        N  0.36419600  0.10654913  0.84347928    -0.39800
N831        N  0.29152862  0.28261283  0.93130587    -0.37600
N832        N  0.33975608  0.21429372  0.97754378    -0.40000
N833        N  0.30972708  0.10527935  0.95597980    -0.39800
N834        N  0.36853829  0.06680730  0.01239076    -0.37400
N835        N  0.46530736  0.15192513  0.90964017    -0.38400
N836        N  0.40500501  0.21219663  0.87144094    -0.40100
C837        C  0.14462446  0.12391056  0.94779582    -0.05000
C838        C  0.13890144  0.15466679  0.92690206     0.09100
C839        C  0.11167579  0.16759835  0.92295317    -0.02400
C840        C  0.09008362  0.14924276  0.93937341    -0.00700
C841        C  0.09538787  0.11625968  0.95886205    -0.04300
C842        C  0.12334688  0.10555834  0.96434759     0.02700
C843        C  0.16200414  0.17292889  0.90916379     0.09600
C844        C  0.10572152  0.19912796  0.90116076     0.35500
C845        C  0.13118660  0.07609679  0.98728807     0.38900
C846        C  0.16582282  0.16419284  0.87695144    -0.04700
C847        C  0.18885200  0.17885561  0.86079073     0.02500
C848        C  0.20798838  0.20317472  0.87667931    -0.04300
C849        C  0.20550976  0.20803545  0.90970110    -0.00500
C850        C  0.18224942  0.19430100  0.92562492    -0.03100
C851        C  0.14611236  0.13955589  0.86056910     0.36200
C852        C  0.22768375  0.22438393  0.92823045     0.39800
C853        C  0.19231521  0.16812865  0.82801983     0.38900
C854        C  0.17968180  0.20098873  0.95939452     0.35900
C855        C  0.17271148  0.11036182  0.95159134     0.36600
C856        C  0.06251318  0.16432384  0.93535095     0.39800
N857        N  0.19331774  0.15787782  0.80201328    -0.38300
N858        N  0.13030985  0.11997876  0.84761314    -0.39800
N859        N  0.24459120  0.23594025  0.94508305    -0.37600
N860        N  0.17790357  0.20592239  0.98637439    -0.40000
N861        N  0.10071739  0.22409540  0.88371208    -0.39800
N862        N  0.04055136  0.17641792  0.93205543    -0.37400
N863        N  0.13856471  0.05288214  0.00524359    -0.38400
N864        N  0.19516499  0.10010214  0.95453572    -0.40100
C865        C  0.01382883  0.14382255  0.75369824    -0.05000
C866        C  0.99541383  0.15251954  0.77812427     0.09100
C867        C  0.47726788  0.18218909  0.77379715    -0.02400
C868        C  0.47773370  0.20497694  0.74582208    -0.00700
C869        C  0.99848856  0.20078237  0.72277538    -0.04300
C870        C  0.01659790  0.16901713  0.72746934     0.02700
C871        C  0.99591136  0.12912387  0.80850255     0.09600
C872        C  0.45840808  0.19172946  0.79886195     0.35500
C873        C  0.04079958  0.16452573  0.70856165     0.38900
C874        C  0.01956375  0.12946367  0.82822904    -0.04700
C875        C  0.02090991  0.10584018  0.85554861     0.02500
C876        C  0.99789508  0.08413000  0.86519422    -0.04300
C877        C  0.47493212  0.08181081  0.84552037    -0.00500
C878        C  0.47402982  0.10304809  0.81680171    -0.03100
C879        C  0.04274085  0.15401430  0.82038675     0.36200
C880        C  0.45127148  0.05950150  0.85538483     0.39800
C881        C  0.04674515  0.10143996  0.87236530     0.38900
C882        C  0.45054674  0.09913619  0.79576121     0.35900
C883        C  0.03070564  0.10920474  0.75600004     0.36600
C884        C  0.45663699  0.23398514  0.74138481     0.39800
N885        N  0.06760997  0.09688593  0.88504074    -0.38300
N886        N  0.06132136  0.17338323  0.81411793    -0.39800
N887        N  0.43237993  0.04183696  0.86342502    -0.37600
N888        N  0.43182876  0.09589443  0.77893296    -0.40000
N889        N  0.44337382  0.19922892  0.81890685    -0.39800
N890        N  0.43920246  0.25656661  0.73933549    -0.37400
N891        N  0.06143518  0.15920460  0.69612134    -0.38400
N892        N  0.04421540  0.08169542  0.75778862    -0.40100
C893        C  0.33292271  0.84432152  0.12474706    -0.05000
C894        C  0.34282913  0.83049748  0.09569710     0.09100
C895        C  0.33121254  0.79696622  0.08225883    -0.02400
C896        C  0.30958570  0.77750644  0.09741423    -0.00700
C897        C  0.30074649  0.78909648  0.12795672    -0.04300
C898        C  0.31248369  0.82346332  0.14117365     0.02700
C899        C  0.36640313  0.84994415  0.07954013     0.09600
C900        C  0.34214874  0.78204174  0.05281019     0.35500
C901        C  0.30517789  0.83675236  0.17249102     0.38900
C902        C  0.39322835  0.84561523  0.09177988    -0.04700
C903        C  0.41582908  0.86120915  0.07542129     0.02500
C904        C  0.41160097  0.88274707  0.04714840    -0.04300
C905        C  0.38488094  0.88418267  0.03376454    -0.00500
C906        C  0.36235942  0.86888514  0.05025859    -0.03100
C907        C  0.39735180  0.82555240  0.12163439     0.36200
C908        C  0.38069412  0.89893589  0.00192512     0.39800
C909        C  0.44324553  0.85388888  0.08749712     0.38900
C910        C  0.33492588  0.87257319  0.03699442     0.35900
C911        C  0.34435091  0.87971293  0.13808111     0.36600
C912        C  0.29736848  0.74517609  0.08089670     0.39800
N913        N  0.46500313  0.84686976  0.09700122    -0.38300
N914        N  0.39996433  0.81011392  0.14579313    -0.39800
N915        N  0.37716954  0.90979992  0.97629464    -0.37600
N916        N  0.31310256  0.87535499  0.02626835    -0.40000
N917        N  0.35114275  0.77091252  0.02928573    -0.39800
N918        N  0.28964250  0.71923362  0.06602366    -0.37400
N919        N  0.29989939  0.84858664  0.19729327    -0.38400
N920        N  0.35357749  0.90785206  0.14871878    -0.40100
C921        C  0.14548041  0.86913255  0.04130054    -0.05000
C922        C  0.14164778  0.84402273  0.06714159     0.09100
C923        C  0.11481342  0.83537628  0.07702661    -0.02400
C924        C  0.09187246  0.85221734  0.06148542    -0.00700
C925        C  0.09566957  0.88031815  0.03721180    -0.04300
C926        C  0.12278900  0.88649708  0.02600616     0.02700
C927        C  0.16615473  0.82713794  0.08394492     0.09600
C928        C  0.11088324  0.81096948  0.10454060     0.35500
C929        C  0.12795872  0.90985697  0.99813757     0.38900
C930        C  0.17744285  0.84595065  0.11064364    -0.04700
C931        C  0.20194955  0.83204251  0.12475890     0.02500
C932        C  0.21250355  0.79517300  0.11604873    -0.04300
C933        C  0.20434845  0.78135848  0.08577842    -0.00500
C934        C  0.18103075  0.79664548  0.07015646    -0.03100
C935        C  0.16476336  0.88109429  0.12240297     0.36200
C936        C  0.22236316  0.75696777  0.06770307     0.39800
C937        C  0.21864370  0.85980800  0.14192535     0.38900
C938        C  0.17357346  0.78273149  0.03881785     0.35900
C939        C  0.17312342  0.87847952  0.03129691     0.36600
C940        C  0.06459781  0.84056492  0.07105853     0.39800
N941        N  0.23167972  0.88320661  0.15478530    -0.38300
N942        N  0.15463472  0.90909204  0.13181663    -0.39800
N943        N  0.23573114  0.73900769  0.05073406    -0.37600
N944        N  0.16817856  0.77179150  0.01362856    -0.40000
N945        N  0.10765486  0.79227321  0.12693911    -0.39800
N946        N  0.04292656  0.83084585  0.07870036    -0.37400
N947        N  0.13320935  0.92793642  0.97592581    -0.38400
N948        N  0.19518434  0.88595976  0.02352856    -0.40100
C949        C  0.47527617  0.88818114  0.17776744    -0.05000
C950        C  0.99931916  0.86511873  0.18776703     0.09100
C951        C  0.02408039  0.86810348  0.17080541    -0.02400
C952        C  0.02628919  0.89454510  0.14548769    -0.00700
C953        C  0.00310521  0.91539456  0.13494228    -0.04300
C954        C  0.47714042  0.91176632  0.15053186     0.02700
C955        C  0.99803336  0.84029484  0.21696343     0.09600
C956        C  0.04727379  0.84380245  0.17934750     0.35500
C957        C  0.45281590  0.93058949  0.13783951     0.38900
C958        C  0.48085083  0.80760809  0.21814445    -0.04700
C959        C  0.47943759  0.78502992  0.24610024     0.02500
C960        C  0.99733496  0.79273510  0.27248155    -0.04300
C961        C  0.01434749  0.82642860  0.27060071    -0.00500
C962        C  0.01344949  0.85083880  0.24381769    -0.03100
C963        C  0.46640048  0.79539003  0.18970706     0.36200
C964        C  0.03429271  0.83636674  0.29480147     0.39800
C965        C  0.45892605  0.75467335  0.24751660     0.38900
C966        C  0.02873722  0.88716004  0.24370876     0.35900
C967        C  0.44984128  0.88640117  0.19516712     0.36600
C968        C  0.05273270  0.90185626  0.13128698     0.39800
N969        N  0.44216605  0.73085641  0.24744513    -0.38300
N970        N  0.45526958  0.78589662  0.16668960    -0.39800
N971        N  0.05094301  0.84743049  0.31224830    -0.37600
N972        N  0.04087216  0.91606164  0.24350003    -0.40000
N973        N  0.06571623  0.82433141  0.18617149    -0.39800
N974        N  0.07394799  0.90843043  0.12050816    -0.37400
N975        N  0.43335183  0.94508076  0.12737574    -0.38400
N976        N  0.42960131  0.88488514  0.20915121    -0.40100
Zr977      Zr  0.50273471  0.92647606  0.02285648     2.17500
O978        O  0.99928509  0.86030927  0.00495630    -0.50900
O979        O  0.50517079  0.91575233  0.07938118    -0.74100
O980        O  0.54740901  0.89483568  0.02939274    -0.80900
O981        O  0.92563755  0.94278157  0.02381822    -0.82600
O982        O  0.57994800  0.93831493  0.01507381    -0.78300
O983        O  0.95822229  0.89749786  0.03469257    -0.89900
O984        O  0.50268959  0.97401097  0.10466592    -0.75900
O985        O  0.53269447  0.97521796  0.04308583    -0.85400
O986        O  0.97503396  0.97713887  0.04570639    -0.85000
O987        O  0.52839282  0.94764830  0.97779821    -0.71800
O988        O  0.97341686  0.95062500  0.98066807    -0.83900
Zr989      Zr  0.00195824  0.07291069  0.97806413     2.26400
Zr990      Zr  0.55747256  0.99765794  0.99845825     2.06300
Zr991      Zr  0.94698897  0.00152332  0.00390586     2.10000
Zr992      Zr  0.00513692  0.02563378  0.06524385     1.78800
O993        O  0.90686546  0.98447832  0.97234936    -0.92700
O994        O  0.54620190  0.03550224  0.09657618    -0.40500
O995        O  0.97652400  0.05170091  0.02361330    -0.77200
O996        O  0.53077581  0.04889567  0.02064404    -0.95900
O997        O  0.53001181  0.02173221  0.95594011    -0.89200
O998        O  0.97184537  0.02352325  0.95897449    -0.92000
C999        C  0.50369543  0.93671659  0.10433436     1.01700
C1000       C  0.93318594  0.90918377  0.03385076     1.14700
C1001       C  0.57258755  0.90491400  0.02554426     1.05500
O1002       O  0.59294568  0.01381247  0.03715440    -0.94200
O1003       O  0.57963429  0.05574407  0.98023987    -0.89900
O1004       O  0.54757951  0.10059797  0.96785413    -0.83100
C1005       C  0.57271498  0.08939842  0.97018329     1.12100
O1006       O  0.99883259  0.90775029  0.91707678    -0.96100
Zr1007     Zr  0.50015893  0.97316537  0.93580155     1.88900
O1008       O  0.00170606  0.08392022  0.92114903    -0.72800
O1009       O  0.58817785  0.98303012  0.95516482    -0.52100
O1010       O  0.54001255  0.96353557  0.90244907    -0.96700
O1011       O  0.95811353  0.95935375  0.90491096    -0.53900
O1012       O  0.99624103  0.02588537  0.89609853    -0.73300
C1013       C  0.99857999  0.06313038  0.89614113     0.99000
O1014       O  0.00245796  0.14042984  0.99530286    -0.62100
O1015       O  0.91893161  0.02677856  0.04650732    -0.56900
O1016       O  0.95681980  0.10236359  0.96826030    -0.93600
O1017       O  0.92471749  0.05714701  0.98011444    -0.92000
O1018       O  0.96687253  0.04496503  0.09824280    -0.92400
O1019       O  0.00985606  0.09121535  0.08610680    -0.91200
C1020       C  0.93178056  0.09032612  0.96902646     1.17900
H1021       H  0.96388673  0.96735215  0.06270071     0.33800
H1022       H  0.54260127  0.06963783  0.02788879     0.44700
H1023       H  0.95972784  0.03321872  0.94264508     0.38200
H1024       H  0.53922429  0.92649349  0.96974695     0.34700
H1025       H  0.53973007  0.03537548  0.11870776     0.26500
H1026       H  0.60674092  0.98422018  0.96476188     0.32400
H1027       H  0.54856124  0.98952562  0.90057267     0.38300
H1028       H  0.97018485  0.03216384  0.11890999     0.32800
H1029       H  0.90065210  0.01515196  0.04257243     0.31700
H1030       H  0.91428484  0.96988378  0.95420818     0.33300
H1031       H  0.96374203  0.96279769  0.88264308     0.32300
H1032       H  0.50284770  0.10779524  0.06628684     0.36300
H1033       H  0.98673007  0.14265792  0.00979578     0.29000
H1034       H  0.50578764  0.84360511  0.02405503     0.33300
H1035       H  0.50276154  0.90907098  0.89262351     0.36100
H1036       H  0.92563696  0.01338882  0.06579685     0.28700
H1037       H  0.52034925  0.14097397  0.00877115     0.41600
H1038       H  0.58711357  0.03884403  0.04637586     0.31700
H1039       H  0.55675183  0.01112020  0.09459009     0.39300
H1040       H  0.94531734  0.98105968  0.90873042     0.31100
H1041       H  0.58495422  0.95526565  0.95039597     0.31200
H1042       H  0.51425265  0.85610035  0.98977939     0.31500
C1043       C  0.99736470  0.21120233  0.65916460     0.45900
H1044       H  0.99407091  0.17977100  0.65824151    -0.03100
C1045       C  0.50359376  0.28503616  0.66293471     0.45900
H1046       H  0.50780847  0.31605401  0.66580536    -0.03100
C1047       C  0.52231450  0.22509511  0.63991046    -0.16800
C1048       C  0.97288683  0.23349989  0.64453292    -0.16600
C1049       C  0.50064052  0.22551541  0.69389229    -0.17000
C1050       C  0.52622872  0.26477419  0.64302464    -0.16900
C1051       C  0.97526648  0.27370706  0.64719396    -0.16500
C1052       C  0.00406151  0.26673944  0.69500218    -0.16800
Zr1053     Zr  0.99902493  0.42440002  0.97716216     2.17500
O1054       O  0.49681956  0.35781474  0.99777237    -0.50900
O1055       O  0.00241886  0.41151878  0.92141706    -0.74100
O1056       O  0.95438467  0.40109969  0.95889165    -0.80900
O1057       O  0.57642261  0.43679669  0.97611260    -0.82600
O1058       O  0.92370157  0.45037360  0.96443035    -0.78300
O1059       O  0.54294306  0.39233204  0.96559962    -0.89900
O1060       O  0.00240960  0.46924500  0.89539975    -0.75900
O1061       O  0.97211734  0.47514341  0.95494596    -0.85400
O1062       O  0.53003190  0.47220652  0.95807911    -0.85000
O1063       O  0.97093105  0.44746925  0.01970227    -0.71800
O1064       O  0.52602192  0.44358052  0.02344566    -0.83900
Zr1065     Zr  0.00184838  0.56786253  0.02243469     2.26400
Zr1066     Zr  0.94497289  0.49967355  0.99682316     2.06300
Zr1067     Zr  0.55619367  0.49202969  0.00302983     2.10000
Zr1068     Zr  0.00265622  0.52221173  0.93507855     1.78800
O1069       O  0.58364502  0.45811229  0.04265944    -0.92700
O1070       O  0.96401615  0.53997490  0.90117782    -0.40500
O1071       O  0.52982633  0.54402590  0.98014061    -0.77200
O1072       O  0.97512973  0.54866252  0.97692204    -0.95900
O1073       O  0.97101172  0.52032304  0.04155507    -0.89200
O1074       O  0.52898289  0.51664831  0.04491467    -0.92000
C1075       C  0.00276411  0.43169162  0.89596882     1.01700
C1076       C  0.56790849  0.40433598  0.96467251     1.14700
C1077       C  0.93075090  0.41676734  0.95453589     1.05500
O1078       O  0.91370675  0.53586540  0.96260737    -0.94200
O1079       O  0.92424355  0.55089036  0.02739569    -0.89900
O1080       O  0.95773678  0.59474735  0.03949875    -0.83100
C1081       C  0.93278859  0.58238098  0.04028130     1.12100
O1082       O  0.49360223  0.40360449  0.08422184    -0.96100
Zr1083     Zr  0.99759476  0.47024582  0.06435504     1.88900
O1084       O  0.00375884  0.58111483  0.07831843    -0.72800
O1085       O  0.90861807  0.46775451  0.02621056    -0.52100
O1086       O  0.95537014  0.46201322  0.09388378    -0.96700
O1087       O  0.53732756  0.45061310  0.09770075    -0.53900
O1088       O  0.00015382  0.52331415  0.10398344    -0.73300
C1089       C  0.00234611  0.56078771  0.10362787     0.99000
O1090       O  0.50134655  0.63388851  0.00308110    -0.62100
O1091       O  0.59624151  0.51721986  0.97576671    -0.56900
O1092       O  0.54678257  0.59424177  0.03620307    -0.93600
O1093       O  0.57862534  0.54733602  0.02707829    -0.92000
O1094       O  0.54518233  0.53352007  0.90648618    -0.92400
O1095       O  0.50407714  0.58785767  0.91496684    -0.91200
C1096       C  0.57135440  0.58075279  0.03737724     1.17900
H1097       H  0.54144955  0.46276288  0.94128975     0.33800
H1098       H  0.96466586  0.57048268  0.96912936     0.44700
H1099       H  0.54040910  0.52563649  0.06219750     0.38200
H1100       H  0.95870847  0.42705127  0.02640538     0.34700
H1101       H  0.96862626  0.52967285  0.88003903     0.26500
H1102       H  0.91114379  0.47678524  0.04828153     0.32400
H1103       H  0.96094259  0.46485803  0.11635240     0.38300
H1104       H  0.53905034  0.54244610  0.88530614     0.32800
H1105       H  0.60929843  0.49531381  0.97458248     0.31700
H1106       H  0.60278073  0.46157064  0.03561783     0.33300
H1107       H  0.53047512  0.45117293  0.11964504     0.32300
H1108       H  0.00141886  0.60488567  0.93168684     0.36300
H1109       H  0.51366029  0.63344497  0.98461984     0.29000
H1110       H  0.99137227  0.34231876  0.97826829     0.33300
H1111       H  0.99012741  0.40461566  0.10551155     0.36100
H1112       H  0.58991438  0.52136753  0.95371135     0.28700
H1113       H  0.98427445  0.63671430  0.99070902     0.41600
H1114       H  0.89549142  0.52417514  0.96644898     0.31700
H1115       H  0.94871101  0.52345650  0.90848620     0.39300
H1116       H  0.55039416  0.47256296  0.09663785     0.31100
H1117       H  0.89155182  0.48054393  0.01884752     0.31200
H1118       H  0.97862782  0.35789670  0.00966903     0.31500
C1119       C  0.99715620  0.78597242  0.33552528     0.45900
H1120       H  0.99688127  0.81807861  0.33504528    -0.03100
C1121       C  0.49674368  0.71141562  0.33706693     0.45900
H1122       H  0.49640583  0.67933506  0.33805008    -0.03100
C1123       C  0.52228437  0.76947518  0.35282737    -0.16800
C1124       C  0.97199613  0.76887001  0.35262936    -0.16600
C1125       C  0.49732309  0.76819505  0.30200795    -0.17000
C1126       C  0.52137884  0.72947061  0.35510683    -0.16900
C1127       C  0.97119232  0.72897343  0.35209216    -0.16500
C1128       C  0.99805116  0.72708506  0.30303426    -0.16800
Zr1129     Zr  0.75035723  0.92589639  0.47553840     2.17500
O1130       O  0.74832427  0.85874399  0.49345826    -0.50900
O1131       O  0.75407635  0.91425902  0.41966066    -0.74100
O1132       O  0.70602453  0.90033717  0.45700672    -0.80900
O1133       O  0.82707219  0.94258786  0.48071998    -0.82600
O1134       O  0.67242244  0.94298625  0.47034800    -0.78300
O1135       O  0.79570547  0.89657793  0.46798744    -0.89900
O1136       O  0.75052646  0.97223612  0.39444276    -0.75900
O1137       O  0.72157693  0.97514093  0.45425387    -0.85400
O1138       O  0.77925234  0.97636455  0.45660362    -0.85000
O1139       O  0.72118063  0.94619047  0.51801646    -0.71800
O1140       O  0.77615339  0.94711655  0.52102756    -0.83900
Zr1141     Zr  0.74815015  0.06922115  0.52271665     2.26400
Zr1142     Zr  0.69370510  0.99757672  0.49633081     2.06300
Zr1143     Zr  0.80428646  0.99867613  0.50175184     2.10000
Zr1144     Zr  0.75033866  0.02453356  0.43460163     1.78800
O1145       O  0.83550292  0.97721211  0.54348161    -0.92700
O1146       O  0.71069832  0.03812878  0.40093625    -0.40500
O1147       O  0.77626467  0.04871502  0.47937542    -0.77200
O1148       O  0.72231645  0.04857767  0.47694169    -0.95900
O1149       O  0.71884987  0.01915030  0.54142218    -0.89200
O1150       O  0.77641982  0.01944609  0.54419552    -0.92000
C1151       C  0.75238537  0.93478431  0.39446871     1.01700
C1152       C  0.82060731  0.90908837  0.46988550     1.14700
C1153       C  0.68091334  0.91182275  0.45728358     1.05500
O1154       O  0.66242272  0.02123111  0.45543720    -0.94200
O1155       O  0.67172376  0.05284055  0.52073792    -0.89900
O1156       O  0.70352852  0.09827145  0.53384168    -0.83100
C1157       C  0.67859879  0.08606242  0.53210453     1.12100
O1158       O  0.75045678  0.90089569  0.57688845    -0.96100
Zr1159     Zr  0.74709035  0.96945577  0.56277796     1.88900
O1160       O  0.74878846  0.07830628  0.57982440    -0.72800
O1161       O  0.65728526  0.97420892  0.53050424    -0.52100
O1162       O  0.70594650  0.95003223  0.59094580    -0.96700
O1163       O  0.78424726  0.95726018  0.60053273    -0.53900
O1164       O  0.74332623  0.01945454  0.60367281    -0.73300
C1165       C  0.74574569  0.05666651  0.60432524     0.99000
O1166       O  0.74746246  0.13643556  0.50460334    -0.62100
O1167       O  0.84015707  0.02004952  0.46613661    -0.56900
O1168       O  0.79224179  0.10068898  0.53244196    -0.93600
O1169       O  0.82560005  0.05663030  0.52295526    -0.92000
O1170       O  0.79059501  0.03986939  0.40331699    -0.92400
O1171       O  0.74878835  0.09131433  0.41551803    -0.91200
C1172       C  0.81749389  0.09010586  0.53225108     1.17900
H1173       H  0.79145890  0.96722801  0.44038036     0.33800
H1174       H  0.71134608  0.06997502  0.46933001     0.44700
H1175       H  0.78769084  0.02919819  0.56134806     0.38200
H1176       H  0.70963304  0.92475223  0.52439832     0.34700
H1177       H  0.71736135  0.03469947  0.37907290     0.26500
H1178       H  0.64064032  0.97401548  0.51690100     0.32400
H1179       H  0.71097535  0.95225832  0.61362712     0.38300
H1180       H  0.78320238  0.04920679  0.38277863     0.32800
H1181       H  0.85677834  0.00592732  0.47324853     0.31700
H1182       H  0.82955408  0.95040893  0.54845186     0.33300
H1183       H  0.77531876  0.95663943  0.62145987     0.32300
H1184       H  0.76317829  0.10498793  0.42789739     0.36300
H1185       H  0.76314684  0.13861194  0.49001259     0.29000
H1186       H  0.74778181  0.84324493  0.47374061     0.33300
H1187       H  0.74701682  0.89949390  0.59990216     0.36100
H1188       H  0.83539966  0.00837026  0.44540488     0.28700
H1189       H  0.73117509  0.13819574  0.49052405     0.41600
H1190       H  0.66856145  0.04796136  0.45060098     0.31700
H1191       H  0.69816930  0.01590728  0.40430111     0.39300
H1192       H  0.79536573  0.98131985  0.60089586     0.31100
H1193       H  0.66144055  0.94646278  0.53429755     0.31200
H1194       H  0.72980916  0.85570869  0.50251073     0.31500
C1195       C  0.75000784  0.71190739  0.16186564     0.45900
H1196       H  0.74653790  0.68069493  0.16442533    -0.03100
C1197       C  0.75383096  0.78663566  0.15823944     0.45900
H1198       H  0.75623308  0.81816894  0.15718508    -0.03100
C1199       C  0.77855620  0.72539695  0.14907430    -0.16800
C1200       C  0.72785237  0.73087454  0.13994709    -0.16600
C1201       C  0.74727987  0.73144738  0.19446501    -0.17000
C1202       C  0.77950181  0.76568111  0.14571496    -0.16900
C1203       C  0.73036870  0.77081587  0.13708941    -0.16500
C1204       C  0.74928751  0.77140610  0.19273120    -0.16800
Zr1205     Zr  0.75147139  0.43503029  0.52642907     2.17500
O1206       O  0.75314633  0.36811252  0.50805789    -0.50900
O1207       O  0.75337731  0.42275932  0.58232824    -0.74100
O1208       O  0.79720277  0.41107670  0.54075683    -0.80900
O1209       O  0.67397609  0.44785911  0.53341532    -0.82600
O1210       O  0.82840458  0.45784473  0.52839666    -0.78300
O1211       O  0.70820959  0.40394102  0.54099534    -0.89900
O1212       O  0.75091258  0.47978334  0.60861084    -0.75900
O1213       O  0.78033133  0.48513500  0.54611984    -0.85400
O1214       O  0.72272912  0.48314359  0.54892642    -0.85000
O1215       O  0.77603027  0.45748919  0.48085942    -0.71800
O1216       O  0.72177599  0.45551031  0.48378839    -0.83900
Zr1217     Zr  0.74573440  0.57895093  0.48132358     2.26400
Zr1218     Zr  0.80391543  0.50921850  0.50122563     2.06300
Zr1219     Zr  0.69340957  0.50412785  0.50709344     2.10000
Zr1220     Zr  0.75161571  0.53263806  0.56870772     1.78800
O1221       O  0.65710389  0.47516455  0.47496832    -0.92700
O1222       O  0.79445021  0.54753944  0.59623834    -0.40500
O1223       O  0.72159867  0.55576896  0.52705009    -0.77200
O1224       O  0.77575392  0.55874626  0.52389181    -0.95900
O1225       O  0.77472543  0.53095632  0.45937994    -0.89200
O1226       O  0.71722910  0.52792449  0.46195401    -0.92000
C1227       C  0.75168591  0.44227065  0.60793972     1.01700
C1228       C  0.68315430  0.41514080  0.54348883     1.14700
C1229       C  0.82167729  0.42511399  0.54052414     1.05500
O1230       O  0.83788448  0.54361881  0.53321496    -0.94200
O1231       O  0.82234987  0.56173482  0.47089014    -0.89900
O1232       O  0.78915283  0.60734550  0.46358234    -0.83100
C1233       C  0.81366347  0.59420451  0.46012375     1.12100
O1234       O  0.74559192  0.41408549  0.42057289    -0.96100
Zr1235     Zr  0.74633542  0.48119597  0.43909068     1.88900
O1236       O  0.74307983  0.59214196  0.42521356    -0.72800
O1237       O  0.83760844  0.48283574  0.46489556    -0.52100
O1238       O  0.78601870  0.46798703  0.40638047    -0.96700
O1239       O  0.70592840  0.46470003  0.40746234    -0.53900
O1240       O  0.74477130  0.53447126  0.39931666    -0.73300
C1241       C  0.74358145  0.57204488  0.39972848     0.99000
O1242       O  0.74558680  0.64565611  0.50032006    -0.62100
O1243       O  0.66294579  0.53245637  0.54591736    -0.56900
O1244       O  0.69965995  0.60565589  0.47221619    -0.93600
O1245       O  0.66906015  0.55799629  0.48349939    -0.92000
O1246       O  0.71523172  0.54734887  0.60581489    -0.92400
O1247       O  0.75066113  0.59868089  0.58922324    -0.91200
C1248       C  0.67506143  0.59190780  0.47303957     1.17900
H1249       H  0.71220035  0.47342359  0.56644531     0.33800
H1250       H  0.78703363  0.58035505  0.53053160     0.44700
H1251       H  0.70479580  0.53698867  0.44566004     0.38200
H1252       H  0.78739218  0.43682871  0.47293198     0.34700
H1253       H  0.79132871  0.53956964  0.61839774     0.26500
H1254       H  0.85557791  0.48829388  0.47505324     0.32400
H1255       H  0.77973763  0.47336050  0.38446367     0.38300
H1256       H  0.72384283  0.54479477  0.62703380     0.32800
H1257       H  0.64871425  0.51248654  0.54959964     0.31700
H1258       H  0.64001750  0.48133945  0.48634379     0.33300
H1259       H  0.71249253  0.46412068  0.38539041     0.32300
H1260       H  0.75815139  0.61491212  0.57199584     0.36300
H1261       H  0.73213791  0.64563523  0.51770973     0.29000
H1262       H  0.75795127  0.35277498  0.52715763     0.33300
H1263       H  0.74803198  0.41522620  0.39736018     0.36100
H1264       H  0.67382989  0.53311349  0.56577175     0.28700
H1265       H  0.76354293  0.64895990  0.51109051     0.41600
H1266       H  0.85523821  0.52951701  0.52966407     0.31700
H1267       H  0.80781515  0.52848502  0.58816796     0.39300
H1268       H  0.69390275  0.48775067  0.40841540     0.31100
H1269       H  0.83558613  0.45428049  0.46611377     0.31200
H1270       H  0.76967609  0.36686375  0.49472015     0.31500
C1271       C  0.74728840  0.28598730  0.83513627     0.45900
H1272       H  0.74508805  0.31744274  0.83267029    -0.03100
C1273       C  0.75174250  0.21157244  0.84020967     0.45900
H1274       H  0.75315454  0.18081314  0.84579714    -0.03100
C1275       C  0.77552507  0.27381902  0.84843594    -0.16800
C1276       C  0.72503850  0.26735536  0.85647209    -0.16600
C1277       C  0.74536086  0.26520093  0.80275383    -0.17000
C1278       C  0.77767351  0.23393653  0.85211020    -0.16900
C1279       C  0.72765563  0.22799622  0.85883956    -0.16500
C1280       C  0.74645396  0.22436184  0.80486581    -0.16800
C1281       C  0.76063531  0.40954646  0.69494853    -0.05000
C1282       C  0.75122621  0.37080812  0.69342320     0.09100
C1283       C  0.74030462  0.35657036  0.66486462    -0.02400
C1284       C  0.74015462  0.37977824  0.63741609    -0.00700
C1285       C  0.75032112  0.41875843  0.63816323    -0.04300
C1286       C  0.75977030  0.43366758  0.66771590     0.02700
C1287       C  0.75103470  0.34506453  0.72217098     0.09600
C1288       C  0.72872963  0.31767676  0.66388431     0.35500
C1289       C  0.76896810  0.47355210  0.67056750     0.38900
C1290       C  0.73083651  0.35020513  0.74513858    -0.04700
C1291       C  0.72874466  0.32418471  0.77082660     0.02500
C1292       C  0.74631547  0.29107414  0.77345678    -0.04300
C1293       C  0.76631160  0.28587007  0.74957792    -0.00500
C1294       C  0.76883561  0.31298224  0.72452059    -0.03100
C1295       C  0.71145549  0.38199904  0.74170954     0.36200
C1296       C  0.78428125  0.25259364  0.74969753     0.39800
C1297       C  0.70753078  0.33219136  0.79360367     0.38900
C1298       C  0.78966250  0.30772473  0.70062832     0.35900
C1299       C  0.77119578  0.42454091  0.72473276     0.36600
C1300       C  0.72918844  0.36231109  0.60873628     0.39800
N1301       N  0.69058782  0.34181654  0.81081407    -0.38300
N1302       N  0.69598543  0.40723109  0.73894123    -0.39800
N1303       N  0.79858553  0.22601446  0.74771543    -0.37600
N1304       N  0.80616975  0.30363347  0.68146646    -0.40000
N1305       N  0.71951374  0.28673307  0.66311792    -0.39800
N1306       N  0.72077647  0.34659097  0.58649900    -0.37400
N1307       N  0.77622764  0.50538175  0.67337521    -0.38400
N1308       N  0.77949514  0.43646520  0.74856542    -0.40100
C1309       C  0.72473671  0.60376470  0.31466579    -0.05000
C1310       C  0.73948714  0.63878203  0.31168502     0.09100
C1311       C  0.75547411  0.65204650  0.33736924    -0.02400
C1312       C  0.75699740  0.63038240  0.36577447    -0.00700
C1313       C  0.74260008  0.59452047  0.36897047    -0.04300
C1314       C  0.72604132  0.58193786  0.34312777     0.02700
C1315       C  0.73990500  0.66075476  0.28083762     0.09600
C1316       C  0.77062997  0.68821803  0.33430639     0.35500
C1317       C  0.70891225  0.54779969  0.34609285     0.38900
C1318       C  0.72050003  0.68976864  0.27399732    -0.04700
C1319       C  0.72256454  0.71265677  0.24613871     0.02500
C1320       C  0.74461308  0.70735993  0.22472581    -0.04300
C1321       C  0.76388240  0.67743068  0.23206702    -0.00500
C1322       C  0.76121884  0.65425754  0.25952666    -0.03100
C1323       C  0.69821664  0.69588810  0.29584841     0.36200
C1324       C  0.78832903  0.67149450  0.21378372     0.39800
C1325       C  0.70129804  0.74088695  0.24024834     0.38900
C1326       C  0.78097694  0.62379341  0.26649707     0.35900
C1327       C  0.70821142  0.59016979  0.28821373     0.36600
C1328       C  0.77329710  0.64620306  0.39150939     0.39800
N1329       N  0.68334239  0.76260524  0.23818382    -0.38300
N1330       N  0.68039511  0.70066190  0.31323259    -0.39800
N1331       N  0.80920021  0.66463080  0.20239421    -0.37600
N1332       N  0.79659486  0.59946941  0.27220416    -0.40000
N1333       N  0.78266823  0.71700867  0.33168560    -0.39800
N1334       N  0.78607043  0.66097334  0.41129756    -0.37400
N1335       N  0.69473730  0.52094572  0.34782823    -0.38400
N1336       N  0.69505033  0.57933519  0.26706465    -0.40100
C1337       C  0.76603183  0.90605262  0.30805407    -0.05000
C1338       C  0.75306402  0.86950993  0.30623244     0.09100
C1339       C  0.73981093  0.85443718  0.33295707    -0.02400
C1340       C  0.73942997  0.87564771  0.36147224    -0.00700
C1341       C  0.75223506  0.91286244  0.36364508    -0.04300
C1342       C  0.76564698  0.92769068  0.33652356     0.02700
C1343       C  0.75325425  0.84635340  0.27618887     0.09600
C1344       C  0.72668886  0.81656315  0.33108988     0.35500
C1345       C  0.78038554  0.96421073  0.33800547     0.38900
C1346       C  0.77261512  0.81670183  0.27198086    -0.04700
C1347       C  0.77179378  0.79321101  0.24457698     0.02500
C1348       C  0.75061816  0.79770339  0.22149917    -0.04300
C1349       C  0.73097361  0.82753953  0.22638985    -0.00500
C1350       C  0.73275857  0.85213458  0.25312456    -0.03100
C1351       C  0.79336268  0.81022418  0.29625062     0.36200
C1352       C  0.70712197  0.83178835  0.20628426     0.39800
C1353       C  0.79367384  0.76557560  0.24028889     0.38900
C1354       C  0.71281869  0.88289000  0.25762202     0.35900
C1355       C  0.78030332  0.92094595  0.28065103     0.36600
C1356       C  0.72565244  0.85826854  0.38827156     0.39800
N1357       N  0.81191035  0.74434310  0.23863114    -0.38300
N1358       N  0.80976435  0.80499819  0.31574324    -0.39800
N1359       N  0.68681849  0.83771340  0.19281129    -0.37600
N1360       N  0.69700684  0.90745428  0.26122138    -0.40000
N1361       N  0.71634101  0.78634437  0.32963543    -0.39800
N1362       N  0.71475914  0.84304811  0.40908685    -0.37400
N1363       N  0.79240789  0.99318885  0.33867938    -0.38400
N1364       N  0.79175615  0.93271159  0.25878916    -0.40100
C1365       C  0.76773991  0.11753094  0.67530408    -0.05000
C1366       C  0.74255139  0.12334145  0.69090651     0.09100
C1367       C  0.71872293  0.10443292  0.67912920    -0.02400
C1368       C  0.71986736  0.08174571  0.65127603    -0.00700
C1369       C  0.74495894  0.07667308  0.63549960    -0.04300
C1370       C  0.76905097  0.09329558  0.64840298     0.02700
C1371       C  0.74158077  0.14766921  0.72065042     0.09600
C1372       C  0.69295534  0.10836234  0.69560308     0.35500
C1373       C  0.79540461  0.08390214  0.63485769     0.38900
C1374       C  0.72710057  0.18291019  0.72145427    -0.04700
C1375       C  0.72640542  0.20562797  0.74943532     0.02500
C1376       C  0.74223987  0.19535435  0.77693412    -0.04300
C1377       C  0.75294248  0.15632384  0.77692794    -0.00500
C1378       C  0.75380715  0.13407045  0.74874168    -0.03100
C1379       C  0.71214082  0.19539515  0.69339231     0.36200
C1380       C  0.76003776  0.13514340  0.80543602     0.39800
C1381       C  0.70631621  0.23643084  0.75009657     0.38900
C1382       C  0.76673788  0.09599532  0.74885465     0.35900
C1383       C  0.79236488  0.13668219  0.68690065     0.36600
C1384       C  0.69512258  0.06405094  0.63852173     0.39800
N1385       N  0.68974621  0.26036146  0.74849239    -0.38300
N1386       N  0.69984950  0.20476305  0.67112527    -0.39800
N1387       N  0.76565468  0.11591034  0.82705680    -0.37600
N1388       N  0.77721295  0.06587190  0.74896163    -0.40000
N1389       N  0.67233956  0.11179309  0.70859036    -0.39800
N1390       N  0.67540401  0.04996516  0.62826271    -0.37400
N1391       N  0.81649484  0.07588714  0.62445547    -0.38400
N1392       N  0.81197431  0.15190467  0.69630249    -0.40100
C1393       C  0.57330499  0.65088716  0.37998037    -0.05000
C1394       C  0.58213197  0.66486469  0.40962724     0.09100
C1395       C  0.56935031  0.69737718  0.42290797    -0.02400
C1396       C  0.54837171  0.71680729  0.40622413    -0.00700
C1397       C  0.54117356  0.70553429  0.37476537    -0.04300
C1398       C  0.55341081  0.67144602  0.36223246     0.02700
C1399       C  0.60600090  0.64673548  0.42636469     0.09600
C1400       C  0.57815591  0.71102641  0.45391326     0.35500
C1401       C  0.54703789  0.65787230  0.33057241     0.38900
C1402       C  0.63276312  0.65433302  0.41586817    -0.04700
C1403       C  0.65560064  0.63880755  0.43217889     0.02500
C1404       C  0.65179555  0.61496917  0.45925007    -0.04300
C1405       C  0.62469869  0.60931725  0.47057232    -0.00500
C1406       C  0.60200277  0.62435276  0.45376512    -0.03100
C1407       C  0.63662314  0.67767770  0.38768551     0.36200
C1408       C  0.61974573  0.58915715  0.50012015     0.39800
C1409       C  0.68273279  0.64748090  0.42042732     0.38900
C1410       C  0.57434949  0.61646931  0.46445700     0.35900
C1411       C  0.58509868  0.61539504  0.36764388     0.36600
C1412       C  0.53454140  0.74804558  0.42241230     0.39800
N1413       N  0.70408813  0.65551860  0.41073077    -0.38300
N1414       N  0.63927777  0.69590050  0.36493269    -0.39800
N1415       N  0.61502617  0.57348648  0.52367459    -0.37600
N1416       N  0.55230306  0.61023322  0.47294944    -0.40000
N1417       N  0.58526468  0.72134533  0.47871909    -0.39800
N1418       N  0.52486573  0.77297727  0.43680231    -0.37400
N1419       N  0.54275703  0.64565262  0.30551882    -0.38400
N1420       N  0.59444650  0.58699473  0.35794949    -0.40100
C1421       C  0.86759207  0.61542695  0.39873248    -0.05000
C1422       C  0.87703986  0.65222815  0.40836793     0.09100
C1423       C  0.86390021  0.67179215  0.43335042    -0.02400
C1424       C  0.84227315  0.65370382  0.44974101    -0.00700
C1425       C  0.83358125  0.61618136  0.44089447    -0.04300
C1426       C  0.84575127  0.59764338  0.41467587     0.02700
C1427       C  0.90125348  0.66989456  0.39245730     0.09600
C1428       C  0.87301080  0.71015478  0.44265775     0.35500
C1429       C  0.83571779  0.56018767  0.40390826     0.38900
C1430       C  0.89745248  0.69607557  0.36728274    -0.04700
C1431       C  0.92024901  0.71422664  0.35331473     0.02500
C1432       C  0.94725507  0.70565911  0.36405818    -0.04300
C1433       C  0.95091103  0.67538272  0.38651298    -0.00500
C1434       C  0.92796315  0.65842108  0.40121443    -0.03100
C1435       C  0.87006175  0.70262308  0.35473724     0.36200
C1436       C  0.97798688  0.66186136  0.39550050     0.39800
C1437       C  0.91570642  0.73956326  0.32639012     0.38900
C1438       C  0.93173378  0.62866111  0.42521107     0.35900
C1439       C  0.88086313  0.59552693  0.37281831     0.36600
C1440       C  0.82956513  0.67309790  0.47624216     0.39800
N1441       N  0.91126704  0.75941233  0.30485471    -0.38300
N1442       N  0.84823341  0.70718737  0.34446398    -0.39800
N1443       N  0.99911304  0.64984034  0.40333627    -0.37600
N1444       N  0.93466385  0.60472088  0.44417582    -0.40000
N1445       N  0.87997342  0.74087664  0.45028789    -0.39800
N1446       N  0.81936244  0.68855348  0.49736193    -0.37400
N1447       N  0.82779787  0.53035784  0.39515542    -0.38400
N1448       N  0.89166239  0.57969362  0.35229489    -0.40100
C1449       C  0.92846164  0.80801482  0.42087042    -0.05000
C1450       C  0.91214550  0.83585580  0.40532429     0.09100
C1451       C  0.91728493  0.84478092  0.37333439    -0.02400
C1452       C  0.93752801  0.82421078  0.35644232    -0.00700
C1453       C  0.95211620  0.79336837  0.37113389    -0.04300
C1454       C  0.94773463  0.78619953  0.40387776     0.02700
C1455       C  0.88859004  0.85393095  0.42246154     0.09600
C1456       C  0.90168728  0.87534812  0.35792502     0.35500
C1457       C  0.96262603  0.75647387  0.42103077     0.38900
C1458       C  0.89338111  0.88072062  0.44702692    -0.04700
C1459       C  0.87140551  0.89454394  0.46522581     0.02500
C1460       C  0.84378070  0.88541822  0.45669761    -0.04300
C1461       C  0.83919353  0.85769566  0.43231811    -0.00500
C1462       C  0.86153930  0.84162641  0.41586252    -0.03100
C1463       C  0.92103463  0.89457792  0.45330278     0.36200
C1464       C  0.81166719  0.84567464  0.42344285     0.39800
C1465       C  0.87775844  0.91696451  0.49344900     0.38900
C1466       C  0.85668499  0.81254999  0.39167846     0.35900
C1467       C  0.92557939  0.80197045  0.45472646     0.36600
C1468       C  0.94240377  0.83413796  0.32364421     0.39800
N1469       N  0.88324286  0.93444730  0.51601587    -0.38300
N1470       N  0.94303362  0.90579402  0.45825014    -0.39800
N1471       N  0.78981050  0.83572324  0.41626365    -0.37600
N1472       N  0.85283076  0.78948727  0.37227852    -0.40000
N1473       N  0.88917538  0.89978133  0.34577153    -0.39800
N1474       N  0.94594961  0.84252954  0.29748211    -0.37400
N1475       N  0.97293968  0.73278353  0.43645841    -0.38400
N1476       N  0.92365134  0.79754549  0.48176410    -0.40100
C1477       C  0.56424807  0.84787701  0.39654013    -0.05000
C1478       C  0.59123018  0.83495845  0.39142840     0.09100
C1479       C  0.59576142  0.80349400  0.37091435    -0.02400
C1480       C  0.57342811  0.78374450  0.35686432    -0.00700
C1481       C  0.54604367  0.79403108  0.36441172    -0.04300
C1482       C  0.54174201  0.82765757  0.38320013     0.02700
C1483       C  0.61492510  0.85395794  0.40819693     0.09600
C1484       C  0.62361674  0.79150031  0.36424995     0.35500
C1485       C  0.51440434  0.84127642  0.39024889     0.38900
C1486       C  0.61874413  0.84842444  0.44110192    -0.04700
C1487       C  0.64123214  0.86569804  0.45693121     0.02500
C1488       C  0.65987671  0.88896059  0.44007255    -0.04300
C1489       C  0.65580800  0.89511931  0.40729812    -0.00500
C1490       C  0.63357870  0.87737236  0.39134314    -0.03100
C1491       C  0.59892257  0.82611441  0.45889514     0.36200
C1492       C  0.67365596  0.92133856  0.39020567     0.39800
C1493       C  0.64485216  0.86032209  0.49075459     0.38900
C1494       C  0.62944894  0.88412421  0.35772707     0.35900
C1495       C  0.55963912  0.88178111  0.41615934     0.36600
C1496       C  0.57909181  0.75402827  0.33359487     0.39800
N1497       N  0.64770284  0.85602518  0.51774610    -0.38300
N1498       N  0.58271540  0.80910113  0.47313433    -0.39800
N1499       N  0.68759263  0.94237562  0.37629436    -0.37600
N1500       N  0.62629869  0.88934758  0.33088062    -0.40000
N1501       N  0.64593236  0.78260702  0.35881392    -0.39800
N1502       N  0.58455243  0.73038812  0.31530115    -0.37400
N1503       N  0.99341887  0.85199906  0.39755841    -0.38400
N1504       N  0.55591273  0.90862640  0.43197370    -0.40100
C1505       C  0.62253581  0.37765003  0.90515153    -0.05000
C1506       C  0.62889179  0.33928418  0.91410350     0.09100
C1507       C  0.61431165  0.32146551  0.93896417    -0.02400
C1508       C  0.59387818  0.34225058  0.95523181    -0.00700
C1509       C  0.58809978  0.38103688  0.94684004    -0.04300
C1510       C  0.60213086  0.39835720  0.92125374     0.02700
C1511       C  0.65312012  0.31976648  0.89962870     0.09600
C1512       C  0.62110444  0.28239367  0.94883079     0.35500
C1513       C  0.59560623  0.43760475  0.91125535     0.38900
C1514       C  0.67901707  0.32415551  0.91385256    -0.04700
C1515       C  0.70267397  0.30982086  0.89887635     0.02500
C1516       C  0.70061772  0.28825784  0.87031119    -0.04300
C1517       C  0.67404708  0.28278875  0.85689757    -0.00500
C1518       C  0.65087666  0.30046532  0.87047822    -0.03100
C1519       C  0.68128279  0.34469180  0.94381201     0.36200
C1520       C  0.66996384  0.25969970  0.82868510     0.39800
C1521       C  0.72850105  0.31814037  0.91406370     0.38900
C1522       C  0.62501610  0.30094426  0.85345063     0.35900
C1523       C  0.63790052  0.39635148  0.88013124     0.36600
C1524       C  0.57984880  0.32448529  0.98166726     0.39800
N1525       N  0.74723930  0.32817045  0.92884162    -0.38300
N1526       N  0.68294846  0.36102672  0.96766501    -0.39800
N1527       N  0.66499867  0.24126478  0.80652600    -0.37600
N1528       N  0.60466154  0.30227826  0.83929378    -0.40000
N1529       N  0.62622530  0.25132727  0.95738149    -0.39800
N1530       N  0.56870054  0.31045856  0.00285785    -0.37400
N1531       N  0.59063149  0.46889572  0.90307294    -0.38400
N1532       N  0.65033237  0.41116521  0.86029849    -0.40100
C1533       C  0.87199355  0.34937301  0.93450786    -0.05000
C1534       C  0.86711731  0.35859291  0.90236629     0.09100
C1535       C  0.88382172  0.38626887  0.88716643    -0.02400
C1536       C  0.90526047  0.40452915  0.90405389    -0.00700
C1537       C  0.90999026  0.39521884  0.93619067    -0.04300
C1538       C  0.89346532  0.36755450  0.95133530     0.02700
C1539       C  0.84372114  0.34033147  0.88482484     0.09600
C1540       C  0.87837499  0.39671752  0.85443163     0.35500
C1541       C  0.89800100  0.35885720  0.98459357     0.38900
C1542       C  0.81711770  0.35533453  0.88793837    -0.04700
C1543       C  0.79489735  0.33782796  0.87169815     0.02500
C1544       C  0.79878518  0.30231519  0.85511062    -0.05900
C1545       C  0.82608663  0.29256806  0.84723107    -0.00500
C1546       C  0.84840136  0.31061971  0.86277441    -0.03100
C1547       C  0.81276635  0.38929306  0.90756790     0.36200
C1548       C  0.83156406  0.26839233  0.82013267     0.39800
C1549       C  0.76961451  0.35948998  0.86951902     0.38900
C1550       C  0.87627671  0.29965941  0.85534202     0.35900
C1551       C  0.85437626  0.32241963  0.95090484     0.36600
C1552       C  0.92246000  0.43287057  0.88835262     0.39800
N1553       N  0.75011365  0.37848138  0.86749139    -0.38300
N1554       N  0.80942822  0.41631869  0.92329681    -0.39800
N1555       N  0.83742945  0.25082817  0.79792866    -0.37600
N1556       N  0.89860723  0.29171284  0.84916115    -0.40000
N1557       N  0.87390643  0.40496294  0.82833439    -0.39800
N1558       N  0.93616971  0.45526023  0.87556784    -0.37400
N1559       N  0.90156602  0.35205463  0.01113585    -0.38400
N1560       N  0.84063338  0.30163486  0.96524185    -0.40100
C1561       C  0.61706653  0.66555057  0.06134417    -0.05000
C1562       C  0.63493444  0.64742072  0.08332035     0.09100
C1563       C  0.63050286  0.60840116  0.09191659    -0.02400
C1564       C  0.60952682  0.58683218  0.07711170    -0.00700
C1565       C  0.59280594  0.60419107  0.05343178    -0.04300
C1566       C  0.59634020  0.64383113  0.04603222     0.02700
C1567       C  0.65866529  0.66895955  0.09748081     0.09600
C1568       C  0.64707774  0.59083929  0.11680553     0.35500
C1569       C  0.57917302  0.66208971  0.02207061     0.38900
C1570       C  0.65445831  0.69663851  0.12119106    -0.04700
C1571       C  0.67687766  0.71639440  0.13500191     0.02500
C1572       C  0.70417102  0.70793619  0.12601095    -0.04300
C1573       C  0.70815686  0.67869901  0.10280510    -0.00500
C1574       C  0.68551812  0.65998958  0.08830785    -0.03100
C1575       C  0.62680434  0.70449694  0.13158069     0.36200
C1576       C  0.73493390  0.66874887  0.09129684     0.39800
C1577       C  0.67094284  0.74556901  0.15828908     0.38900
C1578       C  0.68980934  0.63156874  0.06343286     0.35900
C1579       C  0.61908454  0.70685791  0.05540816     0.36600
C1580       C  0.60468064  0.54713887  0.08725880     0.39800
N1581       N  0.66364323  0.76853889  0.17613408    -0.38300
N1582       N  0.60469162  0.71080251  0.13961410    -0.39800
N1583       N  0.75475245  0.65829667  0.07926577    -0.37600
N1584       N  0.69334858  0.60893495  0.04368149    -0.40000
N1585       N  0.66019974  0.57696317  0.13676591    -0.39800
N1586       N  0.60106616  0.51558769  0.09570554    -0.37400
N1587       N  0.56551567  0.67663931  0.00292549    -0.38400
N1588       N  0.61953380  0.74000786  0.05109056    -0.40100
C1589       C  0.85167258  0.69318569  0.12734095    -0.05000
C1590       C  0.84639009  0.65893896  0.11029509     0.09100
C1591       C  0.82051573  0.64129699  0.11276599    -0.02400
C1592       C  0.79937120  0.65954799  0.12990154    -0.00700
C1593       C  0.80274229  0.69841543  0.14113770    -0.04300
C1594       C  0.83039400  0.71173317  0.14396311     0.02700
C1595       C  0.86892686  0.63955587  0.09232577     0.09600
C1596       C  0.81577868  0.60383406  0.09796752     0.35500
C1597       C  0.83797106  0.74143520  0.16667409     0.38900
C1598       C  0.88697012  0.61367308  0.10787686    -0.04700
C1599       C  0.90818312  0.59553325  0.09092803     0.02500
C1600       C  0.91226914  0.60444261  0.05863243    -0.04300
C1601       C  0.89437118  0.63054292  0.04321059    -0.00500
C1602       C  0.87226834  0.64705458  0.05975514    -0.03100
C1603       C  0.88301560  0.60466164  0.14106391     0.36200
C1604       C  0.89846006  0.63990292  0.01014407     0.39800
C1605       C  0.92534497  0.56692485  0.10661125     0.38900
C1606       C  0.85190548  0.66956218  0.04273584     0.35900
C1607       C  0.87922475  0.70910905  0.12783467     0.36600
C1608       C  0.77686026  0.63508737  0.13971063     0.39800
N1609       N  0.93880280  0.54407647  0.11943551    -0.38300
N1610       N  0.87973954  0.59737808  0.16749707    -0.39800
N1611       N  0.90182119  0.64760841  0.98381010    -0.37600
N1612       N  0.83534902  0.68637230  0.02858345    -0.40000
N1613       N  0.81192014  0.57404690  0.08607528    -0.39800
N1614       N  0.75965880  0.61397689  0.14740948    -0.37400
N1615       N  0.84522770  0.76467450  0.18466100    -0.38400
N1616       N  0.90132853  0.72132445  0.12795310    -0.40100
C1617       C  0.52171674  0.59303652  0.18862140    -0.05000
C1618       C  0.00466898  0.62552331  0.19200963     0.09100
C1619       C  0.98811764  0.63812999  0.16660988    -0.02400
C1620       C  0.98811233  0.61801972  0.13757867    -0.00700
C1621       C  0.00310373  0.58283405  0.13429492    -0.04300
C1622       C  0.52055390  0.57107627  0.16029024     0.02700
C1623       C  0.00523874  0.64875770  0.22205067     0.09600
C1624       C  0.97076071  0.67192409  0.17061416     0.35500
C1625       C  0.53807467  0.53742168  0.15718975     0.38900
C1626       C  0.52380051  0.68203805  0.22537681    -0.04700
C1627       C  0.52191982  0.70674684  0.25198608     0.02500
C1628       C  0.00084313  0.69997465  0.27490467    -0.04300
C1629       C  0.98324416  0.66706556  0.27152643    -0.00500
C1630       C  0.98562916  0.64175227  0.24541773    -0.03100
C1631       C  0.54370816  0.68988578  0.20101552     0.36200
C1632       C  0.96143784  0.65927707  0.29359419     0.39800
C1633       C  0.54207154  0.73740212  0.25560562     0.38900
C1634       C  0.96721766  0.60880700  0.24190251     0.35900
C1635       C  0.53937202  0.58096531  0.21459973     0.36600
C1636       C  0.97334000  0.63518171  0.11113067     0.39800
N1637       N  0.55844993  0.76167942  0.25725996    -0.38300
N1638       N  0.55941737  0.69610460  0.18136295    -0.39800
N1639       N  0.94365285  0.65072200  0.31008418    -0.37600
N1640       N  0.95257748  0.58255008  0.23900350    -0.40000
N1641       N  0.95668280  0.69851395  0.17412160    -0.39800
N1642       N  0.96190474  0.65074601  0.09064588    -0.37400
N1643       N  0.55242004  0.51085583  0.15517624    -0.38400
N1644       N  0.55346741  0.57139112  0.23535444    -0.40100
C1645       C  0.57232615  0.33239314  0.59296791    -0.05000
C1646       C  0.59872972  0.32272760  0.60406341     0.09100
C1647       C  0.60147413  0.29550162  0.62864626    -0.02400
C1648       C  0.57800663  0.27737581  0.64162254    -0.00700
C1649       C  0.55117079  0.28629064  0.63031732    -0.04300
C1650       C  0.54879110  0.31459704  0.60593729     0.02700
C1651       C  0.62322626  0.34411313  0.59141565     0.09600
C1652       C  0.62862188  0.28714209  0.64120310     0.35500
C1653       C  0.52270257  0.32461042  0.59193229     0.38900
C1654       C  0.62839171  0.38248269  0.60145132    -0.04700
C1655       C  0.64872897  0.40501917  0.58659889     0.02500
C1656       C  0.66354291  0.38979075  0.56078121    -0.04300
C1657       C  0.65976494  0.35049403  0.55229982    -0.00500
C1658       C  0.64023225  0.32743175  0.56822796    -0.03100
C1659       C  0.61297483  0.39840384  0.62757790     0.36200
C1660       C  0.67556517  0.33401447  0.52674481     0.39800
C1661       C  0.65515740  0.44331634  0.59889508     0.38900
C1662       C  0.63877094  0.28622908  0.56183073     0.35900
C1663       C  0.56943526  0.36114435  0.56794645     0.36600
C1664       C  0.58216580  0.25030689  0.66723076     0.39800
N1665       N  0.66038136  0.47358373  0.60920123    -0.38300
N1666       N  0.60066027  0.41073154  0.64854091    -0.39800
N1667       N  0.68824891  0.32105873  0.50633470    -0.37600
N1668       N  0.63894848  0.25315557  0.55715100    -0.40000
N1669       N  0.65036183  0.28083828  0.65109674    -0.39800
N1670       N  0.58759046  0.22928251  0.68762426    -0.37400
N1671       N  0.50338588  0.33462201  0.57817210    -0.38400
N1672       N  0.56718436  0.38419703  0.54814998    -0.40100
C1673       C  0.90305742  0.31041160  0.62494602    -0.05000
C1674       C  0.90916846  0.34338496  0.60668835     0.09100
C1675       C  0.93576176  0.35907566  0.60824751    -0.02400
C1676       C  0.95670400  0.33981074  0.62548831    -0.00700
C1677       C  0.95206477  0.30190369  0.63811675    -0.04300
C1678       C  0.92405535  0.29089017  0.64173631     0.02700
C1679       C  0.88674479  0.36449835  0.58934352     0.09600
C1680       C  0.94122935  0.39620659  0.59325639     0.35500
C1681       C  0.91603823  0.26287988  0.66553280     0.38900
C1682       C  0.86834089  0.38807936  0.60624612    -0.04700
C1683       C  0.84712953  0.40782723  0.59012190     0.02500
C1684       C  0.84364044  0.40332365  0.55712979    -0.04300
C1685       C  0.86224860  0.38031618  0.54011506    -0.00500
C1686       C  0.88388428  0.36115872  0.55614912    -0.03100
C1687       C  0.87137574  0.39219985  0.64027868     0.36200
C1688       C  0.85920481  0.37658481  0.50609235     0.39800
C1689       C  0.82961391  0.43414310  0.60735263     0.38900
C1690       C  0.90335222  0.33841380  0.53839084     0.35900
C1691       C  0.87484125  0.29744487  0.62721886     0.36600
C1692       C  0.98036941  0.36280596  0.63445205     0.39800
N1693       N  0.81606614  0.45557483  0.62122765    -0.38300
N1694       N  0.87369751  0.39518733  0.66744535    -0.39800
N1695       N  0.85679974  0.37354174  0.47894057    -0.37600
N1696       N  0.91887529  0.32072072  0.52379001    -0.40000
N1697       N  0.94559890  0.42583970  0.58138027    -0.39800
N1698       N  0.49898400  0.38236381  0.64390345    -0.37400
N1699       N  0.90844742  0.24102171  0.68432897    -0.38400
N1700       N  0.85216326  0.28795936  0.62905919    -0.40100
C1701       C  0.91777952  0.20690754  0.58200654    -0.05000
C1702       C  0.90461142  0.17527559  0.59629543     0.09100
C1703       C  0.91393895  0.16169362  0.62587662    -0.02400
C1704       C  0.93646010  0.17975803  0.64124942    -0.00700
C1705       C  0.95013141  0.21188000  0.62699220    -0.04300
C1706       C  0.94097679  0.22399599  0.59643742     0.02700
C1707       C  0.88179342  0.15511621  0.57900006     0.09600
C1708       C  0.89976150  0.12957388  0.64088235     0.35500
C1709       C  0.95460814  0.25432307  0.57905772     0.38900
C1710       C  0.88773026  0.13242611  0.55222552    -0.04700
C1711       C  0.86643999  0.11420051  0.53509193     0.02500
C1712       C  0.83890723  0.11702629  0.54537550    -0.04300
C1713       C  0.83289544  0.14246549  0.57082415    -0.00500
C1714       C  0.85433428  0.16065520  0.58792014    -0.03100
C1715       C  0.91597702  0.12750550  0.54245894     0.36200
C1716       C  0.80481336  0.15028294  0.57977905     0.39800
C1717       C  0.87311712  0.09443380  0.50589152     0.38900
C1718       C  0.84816572  0.18425930  0.61532177     0.35900
C1719       C  0.90695091  0.22227110  0.55235314     0.36600
C1720       C  0.94411976  0.16580415  0.67244551     0.39800
N1721       N  0.87921968  0.07956567  0.48247398    -0.38300
N1722       N  0.93847299  0.12370510  0.53464786    -0.39800
N1723       N  0.78245133  0.15695734  0.58681187    -0.37600
N1724       N  0.84311572  0.20244702  0.63749642    -0.40000
N1725       N  0.88821845  0.10428581  0.65296202    -0.39800
N1726       N  0.94942690  0.15316771  0.69712102    -0.37400
N1727       N  0.96340591  0.27885002  0.56351631    -0.38400
N1728       N  0.89810162  0.23430770  0.52881334    -0.40100
C1729       C  0.63694484  0.15285760  0.58621588    -0.05000
C1730       C  0.61037362  0.14824875  0.57338117     0.09100
C1731       C  0.60652888  0.12579983  0.54590198    -0.02400
C1732       C  0.62898953  0.10771836  0.53137514    -0.00700
C1733       C  0.65580837  0.11086339  0.54467929    -0.04300
C1734       C  0.65969449  0.13503812  0.57164478     0.02700
C1735       C  0.58604364  0.16623740  0.58897348     0.09600
C1736       C  0.57906956  0.12038482  0.53301799     0.35500
C1737       C  0.68684357  0.14171669  0.58484229     0.38900
C1738       C  0.57289136  0.19850916  0.57511680    -0.04700
C1739       C  0.54908319  0.21386713  0.58893638     0.02500
C1740       C  0.53954954  0.19951285  0.61823561    -0.04300
C1741       C  0.54841407  0.16161468  0.62658157    -0.00500
C1742       C  0.57302636  0.14683313  0.61406124    -0.03100
C1743       C  0.58264767  0.21435702  0.54544928     0.36200
C1744       C  0.52999118  0.13422950  0.64132003     0.39800
C1745       C  0.53141891  0.23750111  0.56930623     0.38900
C1746       C  0.58426947  0.11063601  0.62598677     0.35900
C1747       C  0.64058065  0.17472239  0.61524991     0.36600
C1748       C  0.62404772  0.08670801  0.50214344     0.39800
N1749       N  0.51811957  0.25440800  0.55121018    -0.38300
N1750       N  0.58990069  0.22684692  0.52151354    -0.39800
N1751       N  0.51556423  0.11126041  0.65231886    -0.37600
N1752       N  0.59342043  0.08192075  0.63558690    -0.40000
N1753       N  0.55716248  0.11616879  0.52284338    -0.39800
N1754       N  0.61932371  0.07024937  0.47887322    -0.37400
N1755       N  0.70842565  0.14789162  0.59529903    -0.38400
N1756       N  0.64317794  0.19164922  0.63871295    -0.40100
C1757       C  0.52479410  0.30283321  0.77917490    -0.05000
C1758       C  0.00930307  0.33879933  0.78043902     0.09100
C1759       C  0.99194974  0.34927193  0.75525908    -0.02400
C1760       C  0.98886750  0.32461094  0.72880412    -0.00700
C1761       C  0.00606816  0.29149018  0.72483402    -0.04300
C1762       C  0.52467339  0.28091280  0.75081781     0.02700
C1763       C  0.00874816  0.36211016  0.81041079     0.09600
C1764       C  0.97567814  0.38448257  0.75770694     0.35500
C1765       C  0.54503799  0.25082997  0.74786759     0.38900
C1766       C  0.52406870  0.39585624  0.81380804    -0.04700
C1767       C  0.52144528  0.41974658  0.84089710     0.02500
C1768       C  0.00381504  0.40907735  0.86558108    -0.04300
C1769       C  0.98902818  0.37354802  0.86248506    -0.00500
C1770       C  0.99098872  0.35100214  0.83478657    -0.03100
C1771       C  0.54192193  0.40748558  0.78824886     0.36200
C1772       C  0.97149867  0.35938726  0.88748346     0.39800
C1773       C  0.53676450  0.45577587  0.84251256     0.38900
C1774       C  0.97404397  0.31661236  0.83087104     0.35900
C1775       C  0.53937026  0.28860074  0.80687064     0.36600
C1776       C  0.96525573  0.33197148  0.70889349     0.39800
N1777       N  0.54902592  0.48455426  0.84313635    -0.38300
N1778       N  0.55615098  0.41682299  0.76785539    -0.39800
N1779       N  0.95769079  0.34642883  0.90692307    -0.37600
N1780       N  0.96039380  0.28940306  0.82755614    -0.40000
N1781       N  0.96280802  0.41254665  0.75968287    -0.39800
N1782       N  0.94491765  0.34068471  0.69657871    -0.37400
N1783       N  0.56220948  0.22775572  0.74780688    -0.38400
N1784       N  0.55004204  0.27628199  0.82927107    -0.40100
C1785       C  0.89321665  0.15902599  0.91250946    -0.05000
C1786       C  0.86573654  0.15081289  0.91996613     0.09100
C1787       C  0.85997267  0.12550894  0.94520132    -0.02400
C1788       C  0.88149955  0.10866832  0.96300994    -0.00700
C1789       C  0.90935736  0.11455130  0.95427025    -0.04300
C1790       C  0.91491844  0.14045789  0.92887067     0.02700
C1791       C  0.84285973  0.17109841  0.90259093     0.09600
C1792       C  0.83166189  0.11668883  0.95274052     0.35500
C1793       C  0.94272525  0.14761742  0.91847564     0.38900
C1794       C  0.83652921  0.16198098  0.87089948    -0.04700
C1795       C  0.81622456  0.18317713  0.85408141     0.02500
C1796       C  0.80122885  0.21326598  0.86903026    -0.04300
C1797       C  0.80859482  0.22267960  0.90074622    -0.00500
C1798       C  0.82870107  0.20130374  0.91745852    -0.03100
C1799       C  0.85129689  0.13084901  0.85545911     0.36200
C1800       C  0.79746570  0.25594796  0.91643980     0.39800
C1801       C  0.81373776  0.17639962  0.82049502     0.38900
C1802       C  0.83497646  0.21031968  0.95034933     0.35900
C1803       C  0.89904784  0.18688454  0.88778919     0.36600
C1804       C  0.87446206  0.08604345  0.99075905     0.39800
N1805       N  0.81392832  0.16984846  0.79367087    -0.38300
N1806       N  0.86317313  0.10612963  0.84317513    -0.39800
N1807       N  0.79090163  0.28281442  0.93070928    -0.37600
N1808       N  0.83986167  0.21664890  0.97669671    -0.40000
N1809       N  0.80906693  0.10979966  0.95866306    -0.39800
N1810       N  0.86831924  0.06822455  0.01281107    -0.37400
N1811       N  0.96476054  0.15376749  0.90989990    -0.38400
N1812       N  0.90328552  0.20920492  0.86799979    -0.40100
C1813       C  0.64481633  0.12338960  0.94808570    -0.05000
C1814       C  0.63899744  0.15418650  0.92726015     0.09100
C1815       C  0.61178975  0.16721388  0.92352017    -0.02400
C1816       C  0.59028522  0.14886773  0.94003760    -0.00700
C1817       C  0.59562341  0.11551941  0.95907910    -0.04300
C1818       C  0.62357515  0.10486520  0.96455987     0.02700
C1819       C  0.66197768  0.17258647  0.90950356     0.09600
C1820       C  0.60572620  0.19877332  0.90180208     0.35500
C1821       C  0.63137057  0.07541671  0.98754029     0.38900
C1822       C  0.66589107  0.16366053  0.87736172    -0.04700
C1823       C  0.68885868  0.17845889  0.86120117     0.02500
C1824       C  0.70772398  0.20335089  0.87695285    -0.04300
C1825       C  0.70502237  0.20875126  0.90990439    -0.00500
C1826       C  0.68191845  0.19458269  0.92586606    -0.03100
C1827       C  0.64629836  0.13879734  0.86100499     0.36200
C1828       C  0.72676626  0.22628704  0.92838231     0.39800
C1829       C  0.69247360  0.16728573  0.82855545     0.38900
C1830       C  0.67912862  0.20168251  0.95955137     0.35900
C1831       C  0.67292025  0.10993965  0.95184894     0.36600
C1832       C  0.56282035  0.16457655  0.93678735     0.39800
N1833       N  0.69351037  0.15651055  0.80269466    -0.38300
N1834       N  0.63061743  0.11908864  0.84798467    -0.39800
N1835       N  0.74326279  0.23889645  0.94527204    -0.37600
N1836       N  0.67716180  0.20711503  0.98644710    -0.40000
N1837       N  0.60054384  0.22371361  0.88440031    -0.39800
N1838       N  0.54098971  0.17733985  0.93413610    -0.37400
N1839       N  0.63846816  0.05218195  0.00563009    -0.38400
N1840       N  0.69536317  0.09962724  0.95477086    -0.40100
C1841       C  0.51409262  0.14243919  0.75358717    -0.05000
C1842       C  0.49540286  0.15067099  0.77783723     0.09100
C1843       C  0.97783060  0.18469901  0.77429058    -0.02400
C1844       C  0.97839894  0.20746309  0.74630450    -0.00700
C1845       C  0.49811174  0.19889898  0.72250441    -0.04300
C1846       C  0.51652108  0.16748902  0.72722619     0.02700
C1847       C  0.49615101  0.12747683  0.80825769     0.09600
C1848       C  0.95937691  0.19490033  0.79953599     0.35500
C1849       C  0.54070817  0.16335292  0.70823028     0.38900
C1850       C  0.51966867  0.12882766  0.82817100    -0.04700
C1851       C  0.52131390  0.10529029  0.85549268     0.02500
C1852       C  0.49863655  0.08279625  0.86496802    -0.04300
C1853       C  0.97409195  0.08404546  0.84585502    -0.00500
C1854       C  0.97338842  0.10552325  0.81721165    -0.03100
C1855       C  0.54238721  0.15432193  0.82053114     0.36200
C1856       C  0.95016267  0.06227729  0.85564531     0.39800
C1857       C  0.54712265  0.10184233  0.87251568     0.38900
C1858       C  0.94967164  0.10269552  0.79640073     0.35900
C1859       C  0.53177292  0.10867342  0.75637457     0.36600
C1860       C  0.95774176  0.23716107  0.74214078     0.39800
N1861       N  0.56797746  0.09801083  0.88537071    -0.38300
N1862       N  0.56061675  0.17444606  0.81446227    -0.39800
N1863       N  0.93102782  0.04501151  0.86349517    -0.37600
N1864       N  0.93075707  0.10033267  0.77976894    -0.40000
N1865       N  0.94464325  0.20301595  0.81970218    -0.39800
N1866       N  0.94074116  0.26042553  0.74033051    -0.37400
N1867       N  0.56137565  0.15840691  0.69575625    -0.38400
N1868       N  0.54598639  0.08193501  0.75864724    -0.40100
C1869       C  0.83275473  0.84400468  0.12372402    -0.05000
C1870       C  0.84274321  0.82981034  0.09485682     0.09100
C1871       C  0.83143397  0.79585088  0.08182699    -0.02400
C1872       C  0.80978923  0.77653849  0.09710356    -0.00700
C1873       C  0.80087159  0.78858903  0.12751030    -0.04300
C1874       C  0.81255081  0.82311379  0.14043465     0.02700
C1875       C  0.86620171  0.84934708  0.07863656     0.09600
C1876       C  0.84275737  0.78039446  0.05276820     0.35500
C1877       C  0.80536292  0.83657839  0.17172856     0.38900
C1878       C  0.89301113  0.84526178  0.09090570    -0.04700
C1879       C  0.91548642  0.86169613  0.07489876     0.02500
C1880       C  0.91115001  0.88361127  0.04682922    -0.04300
C1881       C  0.88440798  0.88493693  0.03342534    -0.00500
C1882       C  0.86200536  0.86881783  0.04964195    -0.03100
C1883       C  0.89720724  0.82466791  0.12051191     0.36200
C1884       C  0.87999451  0.90065154  0.00193357     0.39800
C1885       C  0.94288786  0.85512771  0.08730614     0.38900
C1886       C  0.83450792  0.87256479  0.03656961     0.35900
C1887       C  0.84384351  0.87987804  0.13654536     0.36600
C1888       C  0.79740423  0.74421522  0.08075447     0.39800
N1889       N  0.96463582  0.84869928  0.09711417    -0.38300
N1890       N  0.89984571  0.80873585  0.14445225    -0.39800
N1891       N  0.87609953  0.91225682  0.97658678    -0.37600
N1892       N  0.81263191  0.87558778  0.02603457    -0.40000
N1893       N  0.85221800  0.76883884  0.02962971    -0.39800
N1894       N  0.78933058  0.71832660  0.06606423    -0.37400
N1895       N  0.80015453  0.84846608  0.19653003    -0.38400
N1896       N  0.85278031  0.90845893  0.14670557    -0.40100
C1897       C  0.64485610  0.86594172  0.03749198    -0.05000
C1898       C  0.64189401  0.84377614  0.06529536     0.09100
C1899       C  0.61540444  0.83648821  0.07700413    -0.02400
C1900       C  0.59205974  0.85196263  0.06142271    -0.00700
C1901       C  0.59521175  0.87773854  0.03546603    -0.04300
C1902       C  0.62165386  0.88171845  0.02211431     0.02700
C1903       C  0.66675764  0.82765627  0.08185308     0.09600
C1904       C  0.61227295  0.81503199  0.10626283     0.35500
C1905       C  0.62516723  0.90002951  0.99151383     0.38900
C1906       C  0.67808951  0.84678762  0.10836077    -0.04700
C1907       C  0.70249376  0.83284018  0.12268187     0.02500
C1908       C  0.71281696  0.79563727  0.11450044    -0.04300
C1909       C  0.70458039  0.78133005  0.08439442    -0.00500
C1910       C  0.68131282  0.79650453  0.06860564    -0.03100
C1911       C  0.66531313  0.88190913  0.12002941     0.36200
C1912       C  0.72248236  0.75655640  0.06652713     0.39800
C1913       C  0.71931971  0.86073874  0.13951949     0.38900
C1914       C  0.67328964  0.78131780  0.03783452     0.35900
C1915       C  0.67202447  0.87401729  0.02539731     0.36600
C1916       C  0.56504035  0.84067142  0.07212066     0.39800
N1917       N  0.73247520  0.88423727  0.15208924    -0.38300
N1918       N  0.65497846  0.90975786  0.12943871    -0.39800
N1919       N  0.73573691  0.73832542  0.04962729    -0.37600
N1920       N  0.66731453  0.76948033  0.01308624    -0.40000
N1921       N  0.60971441  0.79881091  0.13003058    -0.39800
N1922       N  0.54357252  0.83100805  0.08051373    -0.37400
N1923       N  0.62875825  0.91353866  0.96682689    -0.38400
N1924       N  0.69367519  0.88060134  0.01582088    -0.40100
C1925       C  0.97658505  0.88795911  0.17843400    -0.05000
C1926       C  0.49820375  0.86643823  0.18818561     0.09100
C1927       C  0.52327667  0.86976322  0.17188031    -0.02400
C1928       C  0.52559437  0.89543937  0.14608048    -0.00700
C1929       C  0.50236946  0.91557173  0.13473895    -0.04300
C1930       C  0.97821341  0.91208484  0.15148756     0.02700
C1931       C  0.49667640  0.84182850  0.21746256     0.09600
C1932       C  0.54670385  0.84658766  0.18164352     0.35500
C1933       C  0.95400076  0.93232121  0.14008570     0.38900
C1934       C  0.98163054  0.80664280  0.21796538    -0.04700
C1935       C  0.97991193  0.78439648  0.24608464     0.02500
C1936       C  0.49690254  0.79343073  0.27245870    -0.04300
C1937       C  0.51359203  0.82740980  0.27071631    -0.00500
C1938       C  0.51193323  0.85248276  0.24441848    -0.03100
C1939       C  0.96675579  0.79483650  0.18971166     0.36200
C1940       C  0.53426348  0.83660392  0.29430357     0.39800
C1941       C  0.95900951  0.75459869  0.24777539     0.38900
C1942       C  0.52646458  0.88940812  0.24484213     0.35900
C1943       C  0.95160902  0.88685854  0.19672538     0.36600
C1944       C  0.55210967  0.90223174  0.13188532     0.39800
N1945       N  0.94197446  0.73118501  0.24807627    -0.38300
N1946       N  0.95527744  0.78577677  0.16680324    -0.39800
N1947       N  0.55157735  0.84679730  0.31123499    -0.37600
N1948       N  0.53802042  0.91878189  0.24515948    -0.40000
N1949       N  0.56531191  0.82808493  0.18960532    -0.39800
N1950       N  0.57339446  0.90813324  0.12103791    -0.37400
N1951       N  0.93457692  0.94805236  0.13081580    -0.38400
N1952       N  0.93173834  0.88595595  0.21142180    -0.40100
loop_ 
_geom_bond_atom_site_label_1 
_geom_bond_atom_site_label_2 
_geom_bond_distance 
_geom_bond_site_symmetry_2 
_ccdc_geom_bond_type 
Zr1           O3   2.420       .  S
Zr1           O4   2.462       .  S
Zr1         O983   2.443   1_455  S
Zr1           O9   2.375       .  S
Zr1          O11   2.400   1_554  S
Zr1         O986   2.386   1_455  S
Zr1         O988   2.411   1_454  S
Zr1         O978   2.436   1_455  S
O2         Zr977   2.436       .  S
O2         H1034   0.990       .  S
O2         H1042   0.990   1_554  S
O3           C23   1.282       .  A
O4           C25   1.290       .  A
O5          Zr15   2.427       .  S
O5           C24   1.285       .  A
O6          Zr14   2.417   1_554  S
O6           C25   1.283       .  A
O7         Zr977   2.441       .  S
O7           C24   1.287       .  A
O8         Zr992   2.447   1_565  S
O8           C23   1.286       .  A
O9          Zr14   2.377   1_554  S
O9         Zr992   2.373   1_565  S
O10         Zr15   2.375       .  S
O10         Zr16   2.367   1_565  S
O10        Zr977   2.383       .  S
O10          H45   0.965       .  S
O11         Zr14   2.389       .  S
O11         Zr31   2.404   1_455  S
O11          H48   0.965       .  S
O12         Zr15   2.395   1_556  S
O12        Zr977   2.409   1_556  S
O12       Zr1007   2.410       .  S
Zr13         O32   2.430       .  S
Zr13         O40   2.457       .  S
Zr13       O1004   2.457       .  S
Zr13         O19   2.409   1_556  S
Zr13         O22   2.382       .  S
Zr13        O996   2.405   1_556  S
Zr13        O997   2.375       .  S
Zr13         O38   2.438       .  S
Zr14         O27   2.400   1_565  S
Zr14         O20   2.394   1_566  S
Zr14         O21   2.380   1_565  S
Zr14         O33   2.432       .  S
Zr14         O26   2.432   1_566  S
Zr15         O41   2.414   1_564  S
Zr15         O19   2.394   1_565  S
Zr15         O22   2.386   1_564  S
Zr15         O17   2.430   1_554  S
Zr15         O39   2.435   1_565  S
Zr16        O984   2.443   1_545  S
Zr16         O19   2.406       .  S
Zr16        O985   2.376   1_545  S
Zr16        O996   2.398       .  S
Zr16         O42   2.435       .  S
Zr16         O43   2.436       .  S
Zr16        O994   2.436       .  S
O17          H54   0.989       .  S
O18        Zr992   2.437       .  S
O18          H49   0.990       .  S
O18          H63   0.990       .  S
O20        Zr989   2.408   1_554  S
O20        Zr992   2.402       .  S
O20          H46   0.965       .  S
O21         Zr31   2.371   1_445  S
O21        Zr989   2.374       .  S
O22       Zr1007   2.362   1_545  S
O22          H47   0.964       .  S
C23         C953   1.480       .  S
C24         C904   1.497       .  S
C25         C925   1.512       .  S
O26          H62   0.990       .  S
O27          C29   1.278       .  A
O28        Zr989   2.462       .  S
O28          C29   1.291       .  A
C29         C841   1.513       .  S
O30       Zr1007   2.439       .  S
O30        H1035   0.990       .  S
Zr31       O1012   2.454   1_565  S
Zr31        O988   2.408       .  S
Zr31        O998   2.360   1_565  S
Zr31         O34   2.436   1_655  S
Zr31       O1006   2.438       .  S
Zr31       O1011   2.440       .  S
O32          C37   1.284       .  A
O33          H50   0.990       .  S
O33          H65   0.989       .  S
O34          H51   0.990       .  S
O35       Zr1007   2.439       .  S
O35          H55   0.990       .  S
O35          H64   0.989       .  S
O36       Zr1007   2.451   1_545  S
O36          C37   1.287       .  A
C37        C1852   1.491       .  S
O38          H57   0.990   1_556  S
O38        H1037   0.990   1_556  S
O39          H53   0.990       .  S
O39          H60   0.989       .  S
O40          C44   1.291       .  A
O41          C44   1.282       .  A
O42          H52   0.990       .  S
O43        H1032   0.990       .  S
C44         C813   1.506       .  S
H56        O1019   0.990       .  S
H58         O978   0.990   1_455  S
H59        O1006   0.990   1_455  S
H61        O1014   0.990   1_554  S
H66         O978   0.990   1_456  S
C67          H68   1.094       .  S
C67          C72   1.544       .  S
C67        C1049   1.568       .  S
C67        C1047   1.548       .  S
C69          H70   1.095       .  S
C69          C74   1.561       .  S
C69        C1051   1.567   1_455  S
C69        C1052   1.540       .  S
C71        C1043   1.548   1_455  S
C71          C74   1.385       .  D
C71         C764   1.530       .  S
C72          C75   1.395       .  D
C72         C729   1.524       .  S
C73        C1043   1.568   1_455  S
C73        C1052   1.383       .  D
C73         C869   1.523   1_455  S
C74         C673   1.525       .  S
C75        C1045   1.568       .  S
C75         C701   1.539       .  S
C76        C1045   1.542       .  S
C76        C1049   1.383       .  D
C76         C785   1.527       .  S
Zr77         O79   2.404       .  S
Zr77         O80   2.439       .  S
Zr77       O1059   2.442       .  S
Zr77         O85   2.374       .  S
Zr77         O87   2.409   1_556  S
Zr77       O1062   2.379       .  S
Zr77       O1064   2.403   1_556  S
Zr77       O1054   2.435       .  S
O78       Zr1053   2.435       .  S
O78        H1110   0.990       .  S
O78        H1118   0.990   1_556  S
O79          C99   1.280       .  A
O80         C101   1.286       .  A
O81         Zr91   2.437   1_556  S
O81         C100   1.286       .  A
O82         Zr90   2.408       .  S
O82         C101   1.280       .  A
O83       Zr1053   2.443   1_455  S
O83         C100   1.287       .  A
O84         Zr92   2.480       .  S
O84          C99   1.294       .  A
O85         Zr90   2.376       .  S
O85         Zr92   2.361       .  S
O86         Zr91   2.378   1_556  S
O86       Zr1053   2.378   1_455  S
O86       Zr1068   2.354       .  S
O86         H121   0.964       .  S
O87         Zr90   2.400   1_554  S
O87        Zr107   2.417       .  S
O87         H124   0.965       .  S
O88         Zr91   2.389       .  S
O88       Zr1053   2.404   1_454  S
O88       Zr1083   2.414   1_455  S
Zr89        O108   2.407       .  S
Zr89        O104   2.458       .  S
Zr89       O1092   2.437       .  S
Zr89         O96   2.404   1_554  S
Zr89         O97   2.369       .  S
Zr89       O1071   2.410   1_554  S
Zr89       O1074   2.379       .  S
Zr89       O1090   2.435       .  S
Zr90        O103   2.413   1_556  S
Zr90         O96   2.392       .  S
Zr90         O97   2.378   1_556  S
Zr90        O109   2.436   1_556  S
Zr90        O102   2.436       .  S
Zr91        O117   2.418       .  S
Zr91         O95   2.404   1_554  S
Zr91         O98   2.382       .  S
Zr91         O93   2.433       .  S
Zr91        O115   2.436   1_554  S
Zr92         O96   2.411       .  S
Zr92       O1062   2.352       .  S
Zr92       O1071   2.411       .  S
Zr92         O94   2.435       .  S
Zr92       O1094   2.434       .  S
Zr92       O1095   2.436       .  S
O93         H130   0.990       .  S
O94         H125   0.990       .  S
O94         H139   0.989       .  S
O95       Zr1065   2.410   1_556  S
O95       Zr1068   2.411       .  S
O96         H122   0.965       .  S
O97        Zr107   2.362       .  S
O98       Zr1065   2.382       .  S
O98       Zr1083   2.360   1_455  S
O98         H123   0.966       .  S
C99         C792   1.505       .  S
C100        C533   1.486       .  S
C101        C561   1.470       .  S
O102        H138   0.990       .  S
O103        C105   1.280       .  A
O104        C105   1.289       .  A
C105        C624   1.481       .  S
O106      Zr1083   2.440       .  S
O106       H1111   0.990       .  S
Zr107       O112   2.484       .  S
Zr107      O1064   2.413       .  S
Zr107      O1074   2.357       .  S
Zr107       O110   2.436       .  S
Zr107      O1082   2.440       .  S
Zr107      O1087   2.438       .  S
O108        C113   1.280       .  A
O109        H126   0.990       .  S
O109        H141   0.990       .  S
O110        H127   0.990       .  S
O111      Zr1083   2.435   1_455  S
O111        H131   0.990       .  S
O111        H140   0.989       .  S
O112        C113   1.295       .  A
C113        C645   1.504       .  S
O114      Zr1065   2.435       .  S
O114        H133   0.990   1_554  S
O114       H1113   0.990   1_454  S
O115        H129   0.990       .  S
O115        H136   0.989       .  S
O116      Zr1065   2.440       .  S
O116        C120   1.287       .  A
O117        C120   1.283       .  A
O118      Zr1068   2.434       .  S
O118        H128   0.990       .  S
O119      Zr1068   2.436       .  S
O119       H1108   0.990       .  S
C120        C589   1.482       .  S
H132       O1095   0.990       .  S
H134       O1054   0.990       .  S
H135       O1082   0.990       .  S
H137       O1090   0.990   1_556  S
H142       O1054   0.990   1_554  S
C143        H144   1.106       .  S
C143        C148   1.545       .  S
C143       C1125   1.552       .  S
C143       C1123   1.544       .  S
C145        H146   1.106       .  S
C145        C150   1.547   1_655  S
C145       C1127   1.541       .  S
C145       C1128   1.552       .  S
C147       C1119   1.544   1_455  S
C147        C150   1.380       .  D
C147        C505   1.511       .  S
C148        C151   1.374       .  D
C148        C477   1.511       .  S
C149       C1119   1.552       .  S
C149       C1128   1.393       .  D
C149        C960   1.522       .  S
C150        C421   1.512       .  S
C151       C1121   1.538       .  S
C151        C456   1.504       .  S
C152       C1121   1.550       .  S
C152       C1125   1.391       .  D
C152        C652   1.518       .  S
Zr153       O155   2.403       .  S
Zr153       O156   2.455       .  S
Zr153       O159   2.461       .  S
Zr153       O161   2.376       .  S
Zr153       O162   2.378       .  S
Zr153       O163   2.409       .  S
Zr153       O164   2.402       .  S
Zr153       O154   2.435       .  S
O154        H210   0.991       .  S
O154        H218   0.990       .  S
O155        C175   1.279       .  A
O156        C177   1.289       .  A
O157       Zr167   2.412       .  S
O157        C176   1.281       .  A
O158       Zr166   2.409       .  S
O158        C177   1.280       .  A
O159        C176   1.291       .  A
O160       Zr168   2.479   1_565  S
O160        C175   1.294       .  A
O161       Zr166   2.382       .  S
O161       Zr168   2.361   1_565  S
O162       Zr167   2.384       .  S
O162       Zr168   2.360   1_565  S
O162        H197   0.966       .  S
O163       Zr166   2.400       .  S
O163       Zr183   2.402       .  S
O163        H200   0.967       .  S
O164       Zr167   2.393       .  S
O164       Zr183   2.404       .  S
Zr165       O184   2.434       .  S
Zr165       O192   2.442       .  S
Zr165       O180   2.449       .  S
Zr165       O171   2.408       .  S
Zr165       O172   2.406       .  S
Zr165       O173   2.379       .  S
Zr165       O174   2.376       .  S
Zr165       O190   2.437       .  S
Zr166       O179   2.425   1_565  S
Zr166       O172   2.387   1_565  S
Zr166       O173   2.377   1_565  S
Zr166       O185   2.436       .  S
Zr166       O178   2.435   1_565  S
Zr167       O193   2.426   1_565  S
Zr167       O171   2.390   1_565  S
Zr167       O174   2.376   1_565  S
Zr167       O169   2.434       .  S
Zr167       O191   2.434   1_565  S
Zr168       O171   2.413       .  S
Zr168       O172   2.413       .  S
Zr168       O194   2.435       .  S
Zr168       O195   2.436       .  S
Zr168       O170   2.435       .  S
O169        H206   0.990       .  S
O170        H201   0.990       .  S
O170        H215   0.990       .  S
O172        H198   0.965       .  S
O173       Zr183   2.372   1_545  S
O174       Zr183   2.375   1_545  S
O174        H199   0.966       .  S
C175        C365   1.505       .  S
C176        C484   1.510       .  S
C177        C512   1.479       .  S
O178        H214   0.990       .  S
O179        C181   1.284       .  A
O180        C181   1.288       .  A
C181        C757   1.503       .  S
O182       Zr183   2.440       .  S
O182        H211   0.990       .  S
Zr183       O188   2.447   1_565  S
Zr183       O186   2.437       .  S
Zr183       O187   2.441       .  S
O184        C189   1.285       .  A
O185        H202   0.990       .  S
O185        H217   0.990       .  S
O186        H203   0.990       .  S
O187        H207   0.990       .  S
O187        H216   0.990       .  S
O188        C189   1.286       .  A
C189        C393   1.488       .  S
O190        H209   0.990       .  S
O190        H213   0.990       .  S
O191        H205   0.990       .  S
O191        H212   0.990       .  S
O192        C196   1.287       .  A
O193        C196   1.285       .  A
O194        H204   0.990       .  S
O195        H208   0.990       .  S
C196        C736   1.502       .  S
C219        H220   1.093       .  S
C219        C225   1.539       .  S
C219        C224   1.560       .  S
C219        C223   1.569       .  S
C221        H222   1.093       .  S
C221        C227   1.545       .  S
C221        C226   1.544       .  S
C221        C228   1.565       .  S
C223        C226   1.396       .  D
C223        C617   1.543       .  S
C224        C227   1.386       .  D
C224        C596   1.516       .  S
C225        C228   1.381       .  D
C225        C344   1.527       .  S
C226        C897   1.522       .  S
C227        C932   1.535       .  S
C228        C372   1.517       .  S
Zr229       O231   2.403       .  S
Zr229       O232   2.447       .  S
Zr229       O235   2.451       .  S
Zr229       O237   2.375       .  S
Zr229       O238   2.378       .  S
Zr229       O239   2.405       .  S
Zr229       O240   2.406       .  S
Zr229       O230   2.435       .  S
O230        H286   0.990       .  S
O230        H294   0.990       .  S
O231        C251   1.279       .  A
O232        C253   1.287       .  A
O233       Zr243   2.432       .  S
O233        C252   1.285       .  A
O234       Zr242   2.423       .  S
O234        C253   1.282       .  A
O235        C252   1.289       .  A
O236       Zr244   2.479       .  S
O236        C251   1.293       .  A
O237       Zr242   2.376       .  S
O237       Zr244   2.367       .  S
O238       Zr243   2.374       .  S
O238       Zr244   2.360       .  S
O238        H273   0.965       .  S
O239       Zr242   2.394       .  S
O239       Zr259   2.414       .  S
O239        H276   0.966       .  S
O240       Zr243   2.393       .  S
O240       Zr259   2.413       .  S
Zr241       O260   2.416       .  S
Zr241       O268   2.457       .  S
Zr241       O256   2.453       .  S
Zr241       O247   2.408       .  S
Zr241       O248   2.413       .  S
Zr241       O249   2.372       .  S
Zr241       O250   2.381       .  S
Zr241       O266   2.435       .  S
Zr242       O255   2.399       .  S
Zr242       O248   2.399       .  S
Zr242       O249   2.381       .  S
Zr242       O261   2.439       .  S
Zr242       O254   2.436       .  S
Zr243       O269   2.415       .  S
Zr243       O247   2.392       .  S
Zr243       O250   2.388       .  S
Zr243       O245   2.435       .  S
Zr243       O267   2.431       .  S
Zr244       O247   2.413       .  S
Zr244       O248   2.413       .  S
Zr244       O270   2.435       .  S
Zr244       O271   2.436       .  S
Zr244       O246   2.434       .  S
O245        H282   0.990       .  S
O246        H277   0.990       .  S
O246        H291   0.989       .  S
O248        H274   0.965       .  S
O249       Zr259   2.357       .  S
O250       Zr259   2.364       .  S
O250        H275   0.965       .  S
C251        C309   1.514       .  S
C252        C680   1.493       .  S
C253        C708   1.480       .  S
O254        H290   0.990       .  S
O255        C257   1.279       .  A
O256        C257   1.289       .  A
C257        C449   1.479       .  S
O258       Zr259   2.440       .  S
O258        H287   0.990       .  S
Zr259       O264   2.484       .  S
Zr259       O262   2.435       .  S
Zr259       O263   2.437       .  S
O260        C265   1.281       .  A
O261        H278   0.990       .  S
O261        H293   0.990       .  S
O262        H279   0.990       .  S
O263        H283   0.990       .  S
O263        H292   0.989       .  S
O264        C265   1.294       .  A
C265        C337   1.511       .  S
O266        H285   0.990       .  S
O266        H289   0.990       .  S
O267        H281   0.989       .  S
O267        H288   0.989       .  S
O268        C272   1.290       .  A
O269        C272   1.282       .  A
O270        H280   0.990       .  S
O271        H284   0.990       .  S
C272        C428   1.501       .  S
C295        H296   1.094       .  S
C295        C301   1.548       .  S
C295        C300   1.557       .  S
C295        C299   1.541       .  S
C297        H298   1.087       .  S
C297        C303   1.532       .  S
C297        C302   1.562       .  S
C297        C304   1.580       .  S
C299        C302   1.386       .  D
C299        C568   1.522       .  S
C300        C303   1.365       .  D
C300        C540   1.519       .  S
C301        C304   1.409       .  D
C301        C316   1.527       .  S
C302        C820   1.531       .  S
C303        C848   1.505       .  S
C304        C400   1.561       .  S
C305        C306   1.412       .  A
C305        C310   1.420       .  A
C305        C323   1.451       .  S
C306        C311   1.505       .  S
C306        C307   1.404       .  A
C307        C308   1.408       .  A
C307        C312   1.453       .  S
C308        C309   1.429       .  A
C308        C324   1.451       .  S
C309        C310   1.424       .  A
C310        C313   1.449       .  S
C311        C314   1.403       .  A
C311        C318   1.411       .  A
C312        N329   1.156       .  T
C313        N331   1.157       .  T
C314        C315   1.411       .  A
C314        C319   1.454       .  S
C315        C316   1.431       .  A
C315        C321   1.448       .  S
C316        C317   1.424       .  A
C317        C318   1.418       .  A
C317        C320   1.445       .  S
C318        C322   1.452       .  S
C319        N326   1.157       .  T
C320        N327   1.156       .  T
C321        N325   1.156       .  T
C322        N328   1.157       .  T
C323        N332   1.157       .  T
C324        N330   1.156       .  T
C333        C334   1.409       .  A
C333        C338   1.418       .  A
C333        C351   1.450       .  S
C334        C339   1.504       .  S
C334        C335   1.406       .  A
C335        C336   1.412       .  A
C335        C340   1.454       .  S
C336        C337   1.427       .  A
C336        C352   1.448       .  S
C337        C338   1.420       .  A
C338        C341   1.448       .  S
C339        C342   1.405       .  A
C339        C346   1.402       .  A
C340        N357   1.157       .  T
C341        N359   1.157       .  T
C342        C343   1.418       .  A
C342        C347   1.450       .  S
C343        C344   1.424       .  A
C343        C349   1.443       .  S
C344        C345   1.429       .  A
C345        C346   1.415       .  A
C345        C348   1.444       .  S
C346        C350   1.454       .  S
C347        N354   1.156       .  T
C348        N355   1.156       .  T
C349        N353   1.155       .  T
C350        N356   1.157       .  T
C351        N360   1.157       .  T
C352        N358   1.156       .  T
C361        C362   1.408       .  A
C361        C366   1.415       .  A
C361        C379   1.450       .  S
C362        C367   1.500       .  S
C362        C363   1.406       .  A
C363        C364   1.411       .  A
C363        C368   1.454       .  S
C364        C365   1.427       .  A
C364        C380   1.451       .  S
C365        C366   1.419       .  A
C366        C369   1.448       .  S
C367        C370   1.405       .  A
C367        C374   1.403       .  A
C368        N385   1.157       .  T
C369        N387   1.157       .  T
C370        C371   1.414       .  A
C370        C375   1.451       .  S
C371        C372   1.423       .  A
C371        C377   1.445       .  S
C372        C373   1.423       .  A
C373        C374   1.414       .  A
C373        C376   1.441       .  S
C374        C378   1.454       .  S
C375        N382   1.157       .  T
C376        N383   1.156       .  T
C377        N381   1.156       .  T
C378        N384   1.157       .  T
C379        N388   1.157       .  T
C380        N386   1.157       .  T
C389        C390   1.415       .  A
C389        C394   1.412       .  A
C389        C407   1.450       .  S
C390        C395   1.511       .  S
C390        C391   1.417       .  A
C391        C392   1.415       .  A
C391        C396   1.450       .  S
C392        C393   1.412       .  A
C392        C408   1.451       .  S
C393        C394   1.411       .  A
C394        C397   1.451       .  S
C395        C398   1.405       .  A
C395        C402   1.402       .  A
C396        N413   1.157       .  T
C397        N415   1.157       .  T
C398        C399   1.421       .  A
C398        C403   1.452       .  S
C399        C400   1.437       .  A
C399        C405   1.447       .  S
C400        C401   1.442       .  A
C401        C402   1.418       .  A
C401        C404   1.446       .  S
C402        C406   1.456       .  S
C403        N410   1.157       .  T
C404        N411   1.159       .  T
C405        N409   1.157       .  T
C406        N412   1.157       .  T
C407        N416   1.157       .  T
C408        N414   1.157       .  T
C417        C418   1.407       .  A
C417        C422   1.412       .  A
C417        C435   1.452       .  S
C418        C423   1.496       .  S
C418        C419   1.404       .  A
C419        C420   1.407       .  A
C419        C424   1.453       .  S
C420        C421   1.426       .  A
C420        C436   1.447       .  S
C421        C422   1.422       .  A
C422        C425   1.449       .  S
C423        C426   1.408       .  A
C423        C430   1.406       .  A
C424        N441   1.157       .  T
C425        N443   1.157       .  T
C426        C427   1.411       .  A
C426        C431   1.450       .  S
C427        C428   1.421       .  A
C427        C433   1.450       .  S
C428        C429   1.425       .  A
C429        C430   1.409       .  A
C429        C432   1.451       .  S
C430        C434   1.453       .  S
C431        N438   1.156       .  T
C432        N439   1.157       .  T
C433        N437   1.157       .  T
C434        N440   1.157       .  T
C435        N444   1.157       .  T
C436        N442   1.157       .  T
C445        C446   1.407       .  A
C445        C450   1.406       .  A
C445        C463   1.452       .  S
C446        C451   1.492       .  S
C446        C447   1.413       .  A
C447        C448   1.411       .  A
C447        C452   1.446       .  S
C448        C449   1.409       .  A
C448        C464   1.451       .  S
C449        C450   1.416       .  A
C450        C453   1.450       .  S
C451        C454   1.405       .  A
C451        C458   1.408       .  A
C452        N469   1.156       .  T
C453        N471   1.157       .  T
C454        C455   1.409       .  A
C454        C459   1.450       .  S
C455        C456   1.420       .  A
C455        C461   1.449       .  S
C456        C457   1.418       .  A
C457        C458   1.410       .  A
C457        C460   1.449       .  S
C458        C462   1.452       .  S
C459        N466   1.157       .  T
C460        N467   1.157       .  T
C461        N465   1.157       .  T
C462        N468   1.157       .  T
C463        N472   1.157       .  T
C464        N470   1.157       .  T
C473        C474   1.406       .  A
C473        C478   1.408       .  A
C473        C491   1.454       .  S
C474        C479   1.504       .  S
C474        C475   1.412       .  A
C475        C476   1.417       .  A
C475        C480   1.450       .  S
C476        C477   1.418       .  A
C476        C492   1.449       .  S
C477        C478   1.423       .  A
C478        C481   1.447       .  S
C479        C482   1.408       .  A
C479        C486   1.411       .  A
C480        N497   1.157       .  T
C481        N499   1.157       .  T
C482        C483   1.411       .  A
C482        C487   1.453       .  S
C483        C484   1.427       .  A
C483        C489   1.452       .  S
C484        C485   1.422       .  A
C485        C486   1.414       .  A
C485        C488   1.451       .  S
C486        C490   1.449       .  S
C487        N494   1.157       .  T
C488        N495   1.157       .  T
C489        N493   1.157       .  T
C490        N496   1.156       .  T
C491        N500   1.157       .  T
C492        N498   1.157       .  T
C501        C502   1.409       .  A
C501        C506   1.411       .  A
C501        C519   1.452       .  S
C502        C507   1.500       .  S
C502        C503   1.408       .  A
C503        C504   1.411       .  A
C503        C508   1.452       .  S
C504        C505   1.423       .  A
C504        C520   1.449       .  S
C505        C506   1.421       .  A
C506        C509   1.449       .  S
C507        C510   1.414       .  A
C507        C514   1.412       .  A
C508        N525   1.157       .  T
C509       N1503   1.157   1_455  T
C510        C511   1.411       .  A
C510        C515   1.450       .  S
C511        C512   1.409       .  A
C511        C517   1.450       .  S
C512        C513   1.413       .  A
C513        C514   1.410       .  A
C513        C516   1.451       .  S
C514        C518   1.451       .  S
C515        N522   1.157       .  T
C516        N523   1.157       .  T
C517        N521   1.157       .  T
C518        N524   1.157       .  T
C519        N528   1.157       .  T
C520        N526   1.157       .  T
N527       C1485   1.157       .  T
C529        C530   1.408       .  A
C529        C534   1.408       .  A
C529        C547   1.452       .  S
C530        C535   1.500       .  S
C530        C531   1.415       .  A
C531        C532   1.415       .  A
C531        C536   1.447       .  S
C532        C533   1.411       .  A
C532        C548   1.450       .  S
C533        C534   1.416       .  A
C534        C537   1.450       .  S
C535        C538   1.403       .  A
C535        C542   1.405       .  A
C536        N553   1.156       .  T
C537        N555   1.157       .  T
C538        C539   1.413       .  A
C538        C543   1.454       .  S
C539        C540   1.420       .  A
C539        C545   1.437       .  S
C540        C541   1.422       .  A
C541        C542   1.414       .  A
C541        C544   1.446       .  S
C542        C546   1.448       .  S
C543        N550   1.157       .  T
C544        N551   1.156       .  T
C545        N549   1.155       .  T
C546        N552   1.156       .  T
C547        N556   1.157       .  T
C548        N554   1.157   1_556  T
C557        C558   1.412       .  A
C557        C562   1.407       .  A
C557        C575   1.445       .  S
C558        C563   1.492       .  S
C558        C559   1.410       .  A
C559        C560   1.407       .  A
C559        C564   1.451       .  S
C560        C561   1.412       .  A
C560        C576   1.450       .  S
C561        C562   1.405       .  A
C562        C565   1.452       .  S
C563        C566   1.406       .  A
C563        C570   1.405       .  A
C564        N581   1.157       .  T
C565        N583   1.157   1_556  T
C566        C567   1.412       .  A
C566        C571   1.452       .  S
C567        C568   1.424       .  A
C567        C573   1.445       .  S
C568        C569   1.417       .  A
C569        C570   1.409       .  A
C569        C572   1.444       .  S
C570        C574   1.449       .  S
C571        N578   1.157       .  T
C572        N579   1.156       .  T
C573        N577   1.158       .  T
C574        N580   1.157       .  T
C575        N584   1.155       .  T
C576        N582   1.157       .  T
C585        C586   1.414       .  A
C585        C590   1.410       .  A
C585        C603   1.447       .  S
C586        C591   1.496       .  S
C586        C587   1.408       .  A
C587        C588   1.406       .  A
C587        C592   1.452       .  S
C588        C589   1.417       .  A
C588        C604   1.451       .  S
C589        C590   1.411       .  A
C590        C593   1.451       .  S
C591        C594   1.401       .  A
C591        C598   1.405       .  A
C592        N609   1.157       .  T
C593        N611   1.157       .  T
C594        C595   1.410       .  A
C594        C599   1.449       .  S
C595        C596   1.421       .  A
C595        C601   1.440       .  S
C596        C597   1.422       .  A
C597        C598   1.413       .  A
C597        C600   1.441       .  S
C598        C602   1.454       .  S
C599        N606   1.156       .  T
C600        N607   1.156       .  T
C601        N605   1.153       .  T
C602        N608   1.157       .  T
C603        N612   1.156       .  T
C604        N610   1.157       .  T
C613        C614   1.404       .  A
C613        C618   1.413       .  A
C613        C631   1.451       .  S
C614        C619   1.499       .  S
C614        C615   1.405       .  A
C615        C616   1.415       .  A
C615        C620   1.452       .  S
C616        C617   1.430       .  A
C616        C632   1.447       .  S
C617        C618   1.428       .  A
C618        C621   1.448       .  S
C619        C622   1.412       .  A
C619        C626   1.412       .  A
C620        N637   1.157       .  T
C621        N639   1.157       .  T
C622        C623   1.411       .  A
C622        C627   1.451       .  S
C623        C624   1.413       .  A
C623        C629   1.450       .  S
C624        C625   1.409       .  A
C625        C626   1.412       .  A
C625        C628   1.450       .  S
C626        C630   1.447       .  S
C627        N634   1.157       .  T
C628        N635   1.157   1_554  T
C629        N633   1.157       .  T
C630        N636   1.156       .  T
C631        N640   1.157       .  T
C632        N638   1.158       .  T
C641        C646   1.417       .  A
C641       C1618   1.409       .  A
C641        C659   1.450       .  S
C642        C647   1.501       .  S
C642        C643   1.405       .  A
C642       C1617   1.410       .  A
C643        C644   1.409       .  A
C643        C648   1.452       .  S
C644        C645   1.425       .  A
C644        C660   1.450       .  S
C645       C1622   1.419       .  A
C646       C1621   1.419       .  A
C646        C649   1.448       .  S
C647        C654   1.403       .  A
C647       C1626   1.407       .  A
C648        N665   1.157       .  T
C649        N667   1.157       .  T
C650        C651   1.415       .  A
C650       C1623   1.407       .  A
C650        C655   1.448       .  S
C651       C1628   1.424       .  A
C651        C657   1.448       .  S
C652        C653   1.426       .  A
C652       C1627   1.423       .  A
C653        C654   1.412       .  A
C653        C656   1.447       .  S
C654        C658   1.453       .  S
C655        N662   1.156       .  T
C656        N663   1.156       .  T
C657        N661   1.157       .  T
C658        N664   1.157       .  T
C659        N668   1.157       .  T
C660        N666   1.157       .  T
C669        C670   1.408       .  A
C669        C674   1.415       .  A
C669        C687   1.453       .  S
C670        C675   1.506       .  S
C670        C671   1.405       .  A
C671        C672   1.418       .  A
C671        C676   1.452       .  S
C672        C673   1.424       .  A
C672        C688   1.440       .  S
C673        C674   1.420       .  A
C674        C677   1.441       .  S
C675        C678   1.410       .  A
C675        C682   1.414       .  A
C676        N693   1.157       .  T
C677        N695   1.156       .  T
C678        C679   1.410       .  A
C678        C683   1.451       .  S
C679        C680   1.417       .  A
C679        C685   1.451       .  S
C680        C681   1.413       .  A
C681        C682   1.416       .  A
C681        C684   1.450       .  S
C682        C686   1.448       .  S
C683        N690   1.157       .  T
C684        N691   1.157       .  T
C685        N689   1.157       .  T
C686        N692   1.157       .  T
C687        N696   1.157       .  T
C688        N694   1.154       .  T
C697        C698   1.404       .  A
C697        C702   1.411       .  A
C697        C715   1.451       .  S
C698        C703   1.498       .  S
C698        C699   1.405       .  A
C699        C700   1.415       .  A
C699        C704   1.452       .  S
C700        C701   1.429       .  A
C700        C716   1.447       .  S
C701        C702   1.428       .  A
C702        C705   1.449       .  S
C703        C706   1.411       .  A
C703        C710   1.412       .  A
C704        N721   1.157       .  T
C705        N723   1.157       .  T
C706        C707   1.408       .  A
C706        C711   1.452       .  S
C707        C708   1.412       .  A
C707        C713   1.447       .  S
C708        C709   1.410       .  A
C709        C710   1.413       .  A
C709        C712   1.450       .  S
C710        C714   1.448       .  S
C711        N718   1.157       .  T
C712        N719   1.157       .  T
C713        N717   1.155       .  T
C714        N720   1.157       .  T
C715        N724   1.157       .  T
C716       N1698   1.158       .  T
N722       C1692   1.158       .  T
C725        C726   1.404       .  A
C725        C730   1.410       .  A
C725        C743   1.454       .  S
C726        C731   1.499       .  S
C726        C727   1.407       .  A
C727        C728   1.415       .  A
C727        C732   1.452       .  S
C728        C729   1.426       .  A
C728        C744   1.449       .  S
C729        C730   1.424       .  A
C730        C733   1.441       .  S
C731        C734   1.409       .  A
C731        C738   1.410       .  A
C732        N749   1.157       .  T
C733        N751   1.154       .  T
C734        C735   1.409       .  A
C734        C739   1.453       .  S
C735        C736   1.420       .  A
C735        C741   1.450       .  S
C736        C737   1.422       .  A
C737        C738   1.413       .  A
C737        C740   1.451       .  S
C738        C742   1.450       .  S
C739        N746   1.157       .  T
C740        N747   1.158       .  T
C741        N745   1.157       .  T
C742        N748   1.157       .  T
C743        N752   1.157       .  T
C744        N750   1.157       .  T
C753        C754   1.410       .  A
C753        C758   1.416       .  A
C753        C771   1.450       .  S
C754        C759   1.500       .  S
C754        C755   1.408       .  A
C755        C756   1.409       .  A
C755        C760   1.453       .  S
C756        C757   1.422       .  A
C756        C772   1.451       .  S
C757        C758   1.421       .  A
C758        C761   1.450       .  S
C759        C762   1.409       .  A
C759        C766   1.410       .  A
C760        N777   1.157       .  T
C761        N779   1.157       .  T
C762        C763   1.409       .  A
C762        C767   1.451       .  S
C763        C764   1.414       .  A
C763        C769   1.442       .  S
C764        C765   1.419       .  A
C765        C766   1.414       .  A
C765        C768   1.447       .  S
C766        C770   1.451       .  S
C767        N774   1.157       .  T
C768        N775   1.158       .  T
C769        N773   1.156       .  T
C770        N776   1.157       .  T
C771        N780   1.157       .  T
C772        N778   1.157       .  T
C781        C786   1.416       .  A
C781       C1758   1.407       .  A
C781        C799   1.449       .  S
C782        C787   1.503       .  S
C782        C783   1.400       .  A
C782       C1757   1.407       .  A
C783        C784   1.412       .  A
C783        C788   1.454       .  S
C784        C785   1.428       .  A
C784        C800   1.442       .  S
C785       C1762   1.424       .  A
C786       C1761   1.423       .  A
C786        C789   1.444       .  S
C787        C794   1.406       .  A
C787       C1766   1.411       .  A
C788        N805   1.157       .  T
C789        N807   1.156       .  T
C790        C791   1.417       .  A
C790       C1763   1.411       .  A
C790        C795   1.451       .  S
C791       C1768   1.419       .  A
C791        C797   1.448       .  S
C792        C793   1.425       .  A
C792       C1767   1.420       .  A
C793        C794   1.410       .  A
C793        C796   1.450       .  S
C794        C798   1.452       .  S
C795        N802   1.157       .  T
C796        N803   1.157       .  T
C797        N801   1.157       .  T
C798        N804   1.157       .  T
C799        N808   1.157       .  T
C800        N806   1.156       .  T
C809        C810   1.409       .  A
C809        C814   1.412       .  A
C809        C827   1.447       .  S
C810        C815   1.505       .  S
C810        C811   1.408       .  A
C811        C812   1.412       .  A
C811        C816   1.452       .  S
C812        C813   1.426       .  A
C812        C828   1.451       .  S
C813        C814   1.422       .  A
C814        C817   1.452       .  S
C815        C818   1.407       .  A
C815        C822   1.402       .  A
C816        N833   1.157       .  T
C817        N835   1.157       .  T
C818        C819   1.419       .  A
C818        C823   1.452       .  S
C819        C820   1.424       .  A
C819        C825   1.443       .  S
C820        C821   1.424       .  A
C821        C822   1.413       .  A
C821        C824   1.435       .  S
C822        C826   1.454       .  S
C823        N830   1.157       .  T
C824        N831   1.153       .  T
C825        N829   1.156       .  T
C826        N832   1.157       .  T
C827        N836   1.155       .  T
C828        N834   1.157   1_556  T
C837        C838   1.405       .  A
C837        C842   1.407       .  A
C837        C855   1.456       .  S
C838        C843   1.497       .  S
C838        C839   1.410       .  A
C839        C840   1.415       .  A
C839        C844   1.451       .  S
C840        C841   1.425       .  A
C840        C856   1.451       .  S
C841        C842   1.431       .  A
C842        C845   1.452       .  S
C843        C846   1.409       .  A
C843        C850   1.409       .  A
C844        N861   1.157       .  T
C845        N863   1.157   1_556  T
C846        C847   1.413       .  A
C846        C851   1.452       .  S
C847        C848   1.418       .  A
C847        C853   1.446       .  S
C848        C849   1.412       .  A
C849        C850   1.406       .  A
C849        C852   1.443       .  S
C850        C854   1.453       .  S
C851        N858   1.157       .  T
C852        N859   1.155       .  T
C853        N857   1.156       .  T
C854        N860   1.157       .  T
C855        N864   1.157       .  T
C856        N862   1.158       .  T
C865        C866   1.409   1_455  A
C865        C870   1.414       .  A
C865        C883   1.453       .  S
C866        C871   1.515       .  S
C866       C1843   1.411       .  A
C867        C868   1.419       .  A
C867       C1842   1.411       .  A
C867        C872   1.449       .  S
C868       C1845   1.423       .  A
C868        C884   1.447       .  S
C869        C870   1.420   1_655  A
C869       C1844   1.423       .  A
C870        C873   1.442       .  S
C871        C874   1.417   1_655  A
C871       C1854   1.417       .  A
C872        N889   1.156       .  T
C873        N891   1.156       .  T
C874        C875   1.413       .  A
C874        C879   1.452       .  S
C875        C876   1.411   1_455  A
C875        C881   1.449       .  S
C876       C1013   1.494       .  S
C876       C1853   1.414       .  A
C877        C878   1.417       .  A
C877       C1852   1.413       .  A
C877        C880   1.450       .  S
C878       C1847   1.417       .  A
C878        C882   1.450       .  S
C879        N886   1.157       .  T
C880        N887   1.157       .  T
C881        N885   1.157       .  T
C882        N888   1.157       .  T
C883        N892   1.157       .  T
C884        N890   1.156       .  T
C893        C894   1.408       .  A
C893        C898   1.415       .  A
C893        C911   1.452       .  S
C894        C899   1.500       .  S
C894        C895   1.404       .  A
C895        C896   1.408       .  A
C895        C900   1.454       .  S
C896        C897   1.423       .  A
C896        C912   1.440       .  S
C897        C898   1.426       .  A
C898        C901   1.449       .  S
C899        C902   1.411       .  A
C899        C906   1.411       .  A
C900        N917   1.157       .  T
C901        N919   1.157       .  T
C902        C903   1.413       .  A
C902        C907   1.450       .  S
C903        C904   1.419       .  A
C903        C909   1.450       .  S
C904        C905   1.417       .  A
C905        C906   1.409       .  A
C905        C908   1.451       .  S
C906        C910   1.452       .  S
C907        N914   1.157       .  T
C908        N915   1.157   1_554  T
C909        N913   1.157       .  T
C910        N916   1.157       .  T
C911        N920   1.157       .  T
C912        N918   1.154       .  T
C921        C922   1.406       .  A
C921        C926   1.410       .  A
C921        C939   1.453       .  S
C922        C927   1.502       .  S
C922        C923   1.410       .  A
C923        C924   1.417       .  A
C923        C928   1.448       .  S
C924        C925   1.423       .  A
C924        C940   1.451       .  S
C925        C926   1.426       .  A
C926        C929   1.450   1_554  S
C927        C930   1.409       .  A
C927        C934   1.408       .  A
C928        N945   1.156       .  T
C929        N947   1.157       .  T
C930        C931   1.415       .  A
C930        C935   1.451       .  S
C931        C932   1.422       .  A
C931        C937   1.446       .  S
C932        C933   1.418       .  A
C933        C934   1.412       .  A
C933        C936   1.442       .  S
C934        C938   1.452       .  S
C935        N942   1.157       .  T
C936        N943   1.155       .  T
C937        N941   1.158       .  T
C938        N944   1.157       .  T
C939        N948   1.157       .  T
C940        N946   1.158       .  T
C949        C954   1.412       .  A
C949       C1926   1.414       .  A
C949        C967   1.450       .  S
C950        C955   1.502       .  S
C950        C951   1.415   1_655  A
C950       C1925   1.414       .  A
C951        C952   1.409       .  A
C951        C956   1.451       .  S
C952        C953   1.409       .  A
C952        C968   1.450       .  S
C953       C1930   1.412   1_455  A
C954       C1929   1.412       .  A
C954        C957   1.451       .  S
C955        C962   1.403   1_655  A
C955       C1934   1.408       .  A
C956        N973   1.157       .  T
C957        N975   1.157       .  T
C958        C959   1.416       .  A
C958       C1931   1.408       .  A
C958        C963   1.450       .  S
C959       C1936   1.425       .  A
C959        C965   1.448       .  S
C960        C961   1.428   1_655  A
C960       C1935   1.425       .  A
C961        C962   1.410       .  A
C961        C964   1.446       .  S
C962        C966   1.455       .  S
C963        N970   1.157       .  T
C964        N971   1.156       .  T
C965        N969   1.157       .  T
C966        N972   1.157       .  T
C967        N976   1.157       .  T
C968        N974   1.157       .  T
Zr977       O979   2.419       .  S
Zr977       O980   2.452       .  S
Zr977       O985   2.378       .  S
Zr977       O987   2.402   1_554  S
O979        C999   1.282       .  A
O980       C1001   1.288       .  A
O981       Zr991   2.427   1_565  S
O981       C1000   1.285       .  A
O982       Zr990   2.421   1_554  S
O982       C1001   1.284       .  A
O983       C1000   1.287       .  A
O984        C999   1.286       .  A
O985       Zr990   2.378   1_554  S
O986       Zr991   2.377   1_565  S
O986       Zr992   2.366   1_665  S
O986       H1021   0.965       .  S
O987       Zr990   2.390       .  S
O987      Zr1007   2.403       .  S
O987       H1024   0.965       .  S
O988       Zr991   2.396   1_566  S
Zr989      O1008   2.435       .  S
Zr989      O1016   2.458   1_455  S
Zr989       O995   2.413   1_456  S
Zr989       O998   2.382   1_455  S
Zr989      O1014   2.438       .  S
Zr990      O1003   2.402   1_565  S
Zr990       O996   2.393   1_566  S
Zr990       O997   2.380   1_565  S
Zr990      O1009   2.431       .  S
Zr990      O1002   2.433   1_566  S
Zr991      O1017   2.417   1_554  S
Zr991       O995   2.393       .  S
Zr991       O998   2.386   1_554  S
Zr991       O993   2.429   1_544  S
Zr991      O1015   2.436       .  S
Zr992       O995   2.409   1_455  S
Zr992      O1018   2.436   1_455  S
Zr992      O1019   2.435       .  S
O993       H1030   0.989       .  S
O994       H1025   0.990       .  S
O994       H1039   0.990       .  S
O996       H1022   0.966       .  S
O997      Zr1007   2.369   1_545  S
O998       H1023   0.964       .  S
C999       C1929   1.478       .  S
C1000      C1880   1.497       .  S
C1001      C1901   1.505       .  S
O1002      H1038   0.990       .  S
O1003      C1005   1.279       .  A
O1004      C1005   1.289       .  A
C1005      C1817   1.512       .  S
Zr1007     O1010   2.437       .  S
O1008      C1013   1.285   1_455  A
O1009      H1026   0.990       .  S
O1009      H1041   0.989       .  S
O1010      H1027   0.990       .  S
O1011      H1031   0.990       .  S
O1011      H1040   0.989       .  S
O1012      C1013   1.288       .  A
O1014      H1033   0.990   1_456  S
O1015      H1029   0.990       .  S
O1015      H1036   0.989       .  S
O1016      C1020   1.290       .  A
O1017      C1020   1.282       .  A
O1018      H1028   0.990       .  S
C1020      C1789   1.507       .  S
C1043      H1044   1.095       .  S
C1043      C1048   1.545       .  S
C1045      H1046   1.094       .  S
C1045      C1050   1.562       .  S
C1047      C1050   1.386       .  D
C1047      C1740   1.531       .  S
C1048      C1051   1.394       .  D
C1048      C1705   1.523       .  S
C1049      C1845   1.522       .  S
C1050      C1649   1.526       .  S
C1051      C1677   1.538       .  S
C1052      C1761   1.525       .  S
Zr1053     O1055   2.405   1_655  S
Zr1053     O1056   2.439       .  S
Zr1053     O1061   2.375       .  S
Zr1053     O1063   2.409   1_556  S
O1055      C1075   1.280       .  A
O1056      C1077   1.286       .  A
O1057     Zr1067   2.434   1_556  S
O1057      C1076   1.285       .  A
O1058     Zr1066   2.409       .  S
O1058      C1077   1.280       .  A
O1059      C1076   1.287       .  A
O1060     Zr1068   2.479       .  S
O1060      C1075   1.294       .  A
O1061     Zr1066   2.379       .  S
O1061     Zr1068   2.359   1_655  S
O1062     Zr1067   2.378   1_556  S
O1062      H1097   0.964       .  S
O1063     Zr1066   2.398   1_554  S
O1063     Zr1083   2.412       .  S
O1063      H1100   0.965       .  S
O1064     Zr1067   2.390       .  S
Zr1065     O1084   2.407       .  S
Zr1065     O1080   2.460   1_455  S
Zr1065     O1072   2.405   1_454  S
Zr1065     O1073   2.369   1_455  S
Zr1066     O1079   2.417   1_556  S
Zr1066     O1072   2.394       .  S
Zr1066     O1073   2.376   1_556  S
Zr1066     O1085   2.436   1_556  S
Zr1066     O1078   2.435       .  S
Zr1067     O1093   2.415       .  S
Zr1067     O1071   2.404   1_554  S
Zr1067     O1074   2.382       .  S
Zr1067     O1069   2.433       .  S
Zr1067     O1091   2.437   1_554  S
Zr1068     O1072   2.412   1_455  S
Zr1068     O1070   2.435   1_455  S
O1069      H1106   0.990       .  S
O1070      H1101   0.990       .  S
O1070      H1115   0.990       .  S
O1072      H1098   0.965       .  S
O1073     Zr1083   2.359       .  S
O1074      H1099   0.965       .  S
C1075      C1768   1.504       .  S
C1076      C1509   1.484       .  S
C1077      C1537   1.470       .  S
O1078      H1114   0.990       .  S
O1079      C1081   1.281       .  A
O1080      C1081   1.290       .  A
C1081      C1600   1.484       .  S
Zr1083     O1088   2.483   1_655  S
Zr1083     O1086   2.436       .  S
O1084      C1089   1.280       .  A
O1085      H1102   0.990       .  S
O1085      H1117   0.990       .  S
O1086      H1103   0.990       .  S
O1087      H1107   0.989       .  S
O1087      H1116   0.989       .  S
O1088      C1089   1.295       .  A
C1089      C1621   1.503       .  S
O1090      H1109   0.990   1_554  S
O1091      H1105   0.990       .  S
O1091      H1112   0.989       .  S
O1092      C1096   1.287       .  A
O1093      C1096   1.283       .  A
O1094      H1104   0.990       .  S
C1096      C1565   1.480       .  S
C1119      H1120   1.106       .  S
C1119      C1124   1.546       .  S
C1121      H1122   1.106       .  S
C1121      C1126   1.547       .  S
C1123      C1126   1.382       .  D
C1123      C1481   1.512       .  S
C1124      C1127   1.375       .  D
C1124      C1453   1.512       .  S
C1125      C1936   1.521       .  S
C1126      C1397   1.513       .  S
C1127      C1432   1.508       .  S
C1128      C1628   1.520   1_655  S
Zr1129     O1131   2.405       .  S
Zr1129     O1132   2.455       .  S
Zr1129     O1135   2.458       .  S
Zr1129     O1137   2.374       .  S
Zr1129     O1138   2.379       .  S
Zr1129     O1139   2.408       .  S
Zr1129     O1140   2.401       .  S
Zr1129     O1130   2.435       .  S
O1130      H1186   0.990       .  S
O1130      H1194   0.990       .  S
O1131      C1151   1.279       .  A
O1132      C1153   1.289       .  A
O1133     Zr1143   2.406       .  S
O1133      C1152   1.280       .  A
O1134     Zr1142   2.407       .  S
O1134      C1153   1.279       .  A
O1135      C1152   1.290       .  A
O1136     Zr1144   2.476   1_565  S
O1136      C1151   1.293       .  A
O1137     Zr1142   2.381       .  S
O1137     Zr1144   2.359   1_565  S
O1138     Zr1143   2.383       .  S
O1138     Zr1144   2.364   1_565  S
O1138      H1173   0.966       .  S
O1139     Zr1142   2.398       .  S
O1139     Zr1159   2.402       .  S
O1139      H1176   0.968       .  S
O1140     Zr1143   2.390       .  S
O1140     Zr1159   2.403       .  S
Zr1141     O1160   2.434       .  S
Zr1141     O1168   2.439       .  S
Zr1141     O1156   2.448       .  S
Zr1141     O1147   2.407       .  S
Zr1141     O1148   2.406       .  S
Zr1141     O1149   2.378       .  S
Zr1141     O1150   2.376       .  S
Zr1141     O1166   2.437       .  S
Zr1142     O1155   2.423   1_565  S
Zr1142     O1148   2.391   1_565  S
Zr1142     O1149   2.375   1_565  S
Zr1142     O1161   2.437       .  S
Zr1142     O1154   2.435   1_565  S
Zr1143     O1169   2.418   1_565  S
Zr1143     O1147   2.390   1_565  S
Zr1143     O1150   2.374   1_565  S
Zr1143     O1145   2.434       .  S
Zr1143     O1167   2.433   1_565  S
Zr1144     O1147   2.414       .  S
Zr1144     O1148   2.412       .  S
Zr1144     O1170   2.436       .  S
Zr1144     O1171   2.437       .  S
Zr1144     O1146   2.436       .  S
O1145      H1182   0.990       .  S
O1146      H1177   0.990       .  S
O1146      H1191   0.990       .  S
O1148      H1174   0.965       .  S
O1149     Zr1159   2.371   1_545  S
O1150     Zr1159   2.375   1_545  S
O1150      H1175   0.966       .  S
C1151      C1341   1.506       .  S
C1152      C1460   1.507       .  S
C1153      C1488   1.479       .  S
O1154      H1190   0.989       .  S
O1155      C1157   1.284       .  A
O1156      C1157   1.288       .  A
C1157      C1733   1.505       .  S
O1158     Zr1159   2.440       .  S
O1158      H1187   0.990       .  S
Zr1159     O1164   2.450   1_565  S
Zr1159     O1162   2.437       .  S
Zr1159     O1163   2.440       .  S
O1160      C1165   1.285       .  A
O1161      H1178   0.990       .  S
O1161      H1193   0.990       .  S
O1162      H1179   0.990       .  S
O1163      H1183   0.990       .  S
O1163      H1192   0.990       .  S
O1164      C1165   1.287       .  A
C1165      C1369   1.489       .  S
O1166      H1185   0.991       .  S
O1166      H1189   0.990       .  S
O1167      H1181   0.990       .  S
O1167      H1188   0.990       .  S
O1168      C1172   1.286       .  A
O1169      C1172   1.283       .  A
O1170      H1180   0.990       .  S
O1171      H1184   0.990       .  S
C1172      C1712   1.498       .  S
C1195      H1196   1.093       .  S
C1195      C1201   1.541       .  S
C1195      C1200   1.560       .  S
C1195      C1199   1.569       .  S
C1197      H1198   1.093       .  S
C1197      C1203   1.544       .  S
C1197      C1202   1.545       .  S
C1197      C1204   1.566       .  S
C1199      C1202   1.395       .  D
C1199      C1593   1.543       .  S
C1200      C1203   1.386       .  D
C1200      C1572   1.513       .  S
C1201      C1204   1.381       .  D
C1201      C1320   1.530       .  S
C1202      C1873   1.521       .  S
C1203      C1908   1.536       .  S
C1204      C1348   1.518       .  S
Zr1205     O1207   2.401       .  S
Zr1205     O1208   2.451       .  S
Zr1205     O1211   2.449       .  S
Zr1205     O1213   2.371       .  S
Zr1205     O1214   2.379       .  S
Zr1205     O1215   2.405       .  S
Zr1205     O1216   2.407       .  S
Zr1205     O1206   2.435       .  S
O1206      H1262   0.991       .  S
O1206      H1270   0.990       .  S
O1207      C1227   1.278       .  A
O1208      C1229   1.288       .  A
O1209     Zr1219   2.429       .  S
O1209      C1228   1.284       .  A
O1210     Zr1218   2.419       .  S
O1210      C1229   1.281       .  A
O1211      C1228   1.288       .  A
O1212     Zr1220   2.480       .  S
O1212      C1227   1.293       .  A
O1213     Zr1218   2.377       .  S
O1213     Zr1220   2.365       .  S
O1214     Zr1219   2.376       .  S
O1214     Zr1220   2.358       .  S
O1214      H1249   0.965       .  S
O1215     Zr1218   2.395       .  S
O1215     Zr1235   2.415       .  S
O1215      H1252   0.965       .  S
O1216     Zr1219   2.394       .  S
O1216     Zr1235   2.414       .  S
Zr1217     O1236   2.416       .  S
Zr1217     O1244   2.458       .  S
Zr1217     O1232   2.456       .  S
Zr1217     O1223   2.408       .  S
Zr1217     O1224   2.411       .  S
Zr1217     O1225   2.374       .  S
Zr1217     O1226   2.380       .  S
Zr1217     O1242   2.435       .  S
Zr1218     O1231   2.395       .  S
Zr1218     O1224   2.399       .  S
Zr1218     O1225   2.381       .  S
Zr1218     O1237   2.439       .  S
Zr1218     O1230   2.435       .  S
Zr1219     O1245   2.414       .  S
Zr1219     O1223   2.395       .  S
Zr1219     O1226   2.388       .  S
Zr1219     O1221   2.434       .  S
Zr1219     O1243   2.432       .  S
Zr1220     O1223   2.414       .  S
Zr1220     O1224   2.413       .  S
Zr1220     O1246   2.436       .  S
Zr1220     O1247   2.436       .  S
Zr1220     O1222   2.436       .  S
O1221      H1258   0.990       .  S
O1222      H1253   0.989       .  S
O1222      H1267   0.990       .  S
O1224      H1250   0.965       .  S
O1225     Zr1235   2.358       .  S
O1226     Zr1235   2.363       .  S
O1226      H1251   0.965       .  S
C1227      C1285   1.514       .  S
C1228      C1656   1.491       .  S
C1229      C1684   1.480       .  S
O1230      H1266   0.990       .  S
O1231      C1233   1.278       .  A
O1232      C1233   1.290       .  A
C1233      C1425   1.480       .  S
O1234     Zr1235   2.441       .  S
O1234      H1263   0.990       .  S
Zr1235     O1240   2.488       .  S
Zr1235     O1238   2.435       .  S
Zr1235     O1239   2.438       .  S
O1236      C1241   1.282       .  A
O1237      H1254   0.990       .  S
O1237      H1269   0.990       .  S
O1238      H1255   0.990       .  S
O1239      H1259   0.990       .  S
O1239      H1268   0.989       .  S
O1240      C1241   1.296       .  A
C1241      C1313   1.513       .  S
O1242      H1261   0.990       .  S
O1242      H1265   0.990       .  S
O1243      H1257   0.990       .  S
O1243      H1264   0.989       .  S
O1244      C1248   1.290       .  A
O1245      C1248   1.283       .  A
O1246      H1256   0.990       .  S
O1247      H1260   0.990       .  S
C1248      C1404   1.499       .  S
C1271      H1272   1.094       .  S
C1271      C1277   1.547       .  S
C1271      C1276   1.556       .  S
C1271      C1275   1.542       .  S
C1273      H1274   1.087       .  S
C1273      C1279   1.531       .  S
C1273      C1278   1.559       .  S
C1273      C1280   1.576       .  S
C1275      C1278   1.386       .  D
C1275      C1544   1.523       .  S
C1276      C1279   1.365       .  D
C1276      C1516   1.516       .  S
C1277      C1280   1.410       .  D
C1277      C1292   1.526       .  S
C1278      C1796   1.525       .  S
C1279      C1824   1.504       .  S
C1280      C1376   1.559       .  S
C1281      C1282   1.411       .  A
C1281      C1286   1.419       .  A
C1281      C1299   1.451       .  S
C1282      C1287   1.503       .  S
C1282      C1283   1.403       .  A
C1283      C1284   1.408       .  A
C1283      C1288   1.453       .  S
C1284      C1285   1.431       .  A
C1284      C1300   1.451       .  S
C1285      C1286   1.423       .  A
C1286      C1289   1.449       .  S
C1287      C1290   1.402       .  A
C1287      C1294   1.410       .  A
C1288      N1305   1.156       .  T
C1289      N1307   1.157       .  T
C1290      C1291   1.411       .  A
C1290      C1295   1.454       .  S
C1291      C1292   1.432       .  A
C1291      C1297   1.448       .  S
C1292      C1293   1.423       .  A
C1293      C1294   1.417       .  A
C1293      C1296   1.444       .  S
C1294      C1298   1.452       .  S
C1295      N1302   1.157       .  T
C1296      N1303   1.156       .  T
C1297      N1301   1.156       .  T
C1298      N1304   1.157       .  T
C1299      N1308   1.157       .  T
C1300      N1306   1.156       .  T
C1309      C1310   1.409       .  A
C1309      C1314   1.419       .  A
C1309      C1327   1.449       .  S
C1310      C1315   1.507       .  S
C1310      C1311   1.407       .  A
C1311      C1312   1.414       .  A
C1311      C1316   1.454       .  S
C1312      C1313   1.427       .  A
C1312      C1328   1.447       .  S
C1313      C1314   1.420       .  A
C1314      C1317   1.447       .  S
C1315      C1318   1.406       .  A
C1315      C1322   1.401       .  A
C1316      N1333   1.157       .  T
C1317      N1335   1.157       .  T
C1318      C1319   1.420       .  A
C1318      C1323   1.450       .  S
C1319      C1320   1.425       .  A
C1319      C1325   1.443       .  S
C1320      C1321   1.428       .  A
C1321      C1322   1.415       .  A
C1321      C1324   1.443       .  S
C1322      C1326   1.454       .  S
C1323      N1330   1.156       .  T
C1324      N1331   1.156       .  T
C1325      N1329   1.156       .  T
C1326      N1332   1.157       .  T
C1327      N1336   1.157       .  T
C1328      N1334   1.156       .  T
C1337      C1338   1.409       .  A
C1337      C1342   1.416       .  A
C1337      C1355   1.450       .  S
C1338      C1343   1.500       .  S
C1338      C1339   1.406       .  A
C1339      C1340   1.410       .  A
C1339      C1344   1.454       .  S
C1340      C1341   1.427       .  A
C1340      C1356   1.451       .  S
C1341      C1342   1.420       .  A
C1342      C1345   1.449       .  S
C1343      C1346   1.405       .  A
C1343      C1350   1.404       .  A
C1344      N1361   1.157       .  T
C1345      N1363   1.157       .  T
C1346      C1347   1.414       .  A
C1346      C1351   1.451       .  S
C1347      C1348   1.422       .  A
C1347      C1353   1.445       .  S
C1348      C1349   1.423       .  A
C1349      C1350   1.415       .  A
C1349      C1352   1.442       .  S
C1350      C1354   1.454       .  S
C1351      N1358   1.157       .  T
C1352      N1359   1.156       .  T
C1353      N1357   1.156       .  T
C1354      N1360   1.157       .  T
C1355      N1364   1.157       .  T
C1356      N1362   1.157       .  T
C1365      C1366   1.416       .  A
C1365      C1370   1.413       .  A
C1365      C1383   1.451       .  S
C1366      C1371   1.513       .  S
C1366      C1367   1.418       .  A
C1367      C1368   1.415       .  A
C1367      C1372   1.450       .  S
C1368      C1369   1.412       .  A
C1368      C1384   1.451       .  S
C1369      C1370   1.412       .  A
C1370      C1373   1.450       .  S
C1371      C1374   1.406       .  A
C1371      C1378   1.404       .  A
C1372      N1389   1.157       .  T
C1373      N1391   1.157       .  T
C1374      C1375   1.420       .  A
C1374      C1379   1.451       .  S
C1375      C1376   1.433       .  A
C1375      C1381   1.446       .  S
C1376      C1377   1.443       .  A
C1377      C1378   1.418       .  A
C1377      C1380   1.447       .  S
C1378      C1382   1.456       .  S
C1379      N1386   1.157       .  T
C1380      N1387   1.159       .  T
C1381      N1385   1.157       .  T
C1382      N1388   1.157       .  T
C1383      N1392   1.157       .  T
C1384      N1390   1.157       .  T
C1393      C1394   1.406       .  A
C1393      C1398   1.412       .  A
C1393      C1411   1.452       .  S
C1394      C1399   1.494       .  S
C1394      C1395   1.403       .  A
C1395      C1396   1.407       .  A
C1395      C1400   1.453       .  S
C1396      C1397   1.426       .  A
C1396      C1412   1.447       .  S
C1397      C1398   1.423       .  A
C1398      C1401   1.449       .  S
C1399      C1402   1.408       .  A
C1399      C1406   1.405       .  A
C1400      N1417   1.157       .  T
C1401      N1419   1.157       .  T
C1402      C1403   1.410       .  A
C1402      C1407   1.450       .  S
C1403      C1404   1.421       .  A
C1403      C1409   1.449       .  S
C1404      C1405   1.424       .  A
C1405      C1406   1.409       .  A
C1405      C1408   1.450       .  S
C1406      C1410   1.453       .  S
C1407      N1414   1.156       .  T
C1408      N1415   1.157       .  T
C1409      N1413   1.157       .  T
C1410      N1416   1.157       .  T
C1411      N1420   1.157       .  T
C1412      N1418   1.157       .  T
C1421      C1422   1.407       .  A
C1421      C1426   1.406       .  A
C1421      C1439   1.452       .  S
C1422      C1427   1.494       .  S
C1422      C1423   1.413       .  A
C1423      C1424   1.412       .  A
C1423      C1428   1.447       .  S
C1424      C1425   1.409       .  A
C1424      C1440   1.450       .  S
C1425      C1426   1.416       .  A
C1426      C1429   1.451       .  S
C1427      C1430   1.405       .  A
C1427      C1434   1.409       .  A
C1428      N1445   1.156       .  T
C1429      N1447   1.157       .  T
C1430      C1431   1.410       .  A
C1430      C1435   1.451       .  S
C1431      C1432   1.421       .  A
C1431      C1437   1.449       .  S
C1432      C1433   1.419       .  A
C1433      C1434   1.412       .  A
C1433      C1436   1.449       .  S
C1434      C1438   1.452       .  S
C1435      N1442   1.157       .  T
C1436      N1443   1.157       .  T
C1437      N1441   1.157       .  T
C1438      N1444   1.157       .  T
C1439      N1448   1.157       .  T
C1440      N1446   1.157       .  T
C1449      C1450   1.406       .  A
C1449      C1454   1.408       .  A
C1449      C1467   1.454       .  S
C1450      C1455   1.502       .  S
C1450      C1451   1.411       .  A
C1451      C1452   1.416       .  A
C1451      C1456   1.450       .  S
C1452      C1453   1.419       .  A
C1452      C1468   1.449       .  S
C1453      C1454   1.424       .  A
C1454      C1457   1.446       .  S
C1455      C1458   1.407       .  A
C1455      C1462   1.411       .  A
C1456      N1473   1.157       .  T
C1457      N1475   1.157       .  T
C1458      C1459   1.410       .  A
C1458      C1463   1.453       .  S
C1459      C1460   1.426       .  A
C1459      C1465   1.452       .  S
C1460      C1461   1.421       .  A
C1461      C1462   1.414       .  A
C1461      C1464   1.451       .  S
C1462      C1466   1.449       .  S
C1463      N1470   1.157       .  T
C1464      N1471   1.157       .  T
C1465      N1469   1.157       .  T
C1466      N1472   1.156       .  T
C1467      N1476   1.157       .  T
C1468      N1474   1.157       .  T
C1477      C1478   1.410       .  A
C1477      C1482   1.412       .  A
C1477      C1495   1.452       .  S
C1478      C1483   1.500       .  S
C1478      C1479   1.408       .  A
C1479      C1480   1.410       .  A
C1479      C1484   1.452       .  S
C1480      C1481   1.423       .  A
C1480      C1496   1.449       .  S
C1481      C1482   1.422       .  A
C1482      C1485   1.449       .  S
C1483      C1486   1.414       .  A
C1483      C1490   1.413       .  A
C1484      N1501   1.157       .  T
C1486      C1487   1.410       .  A
C1486      C1491   1.450       .  S
C1487      C1488   1.409       .  A
C1487      C1493   1.450       .  S
C1488      C1489   1.413       .  A
C1489      C1490   1.410       .  A
C1489      C1492   1.451       .  S
C1490      C1494   1.452       .  S
C1491      N1498   1.157       .  T
C1492      N1499   1.157       .  T
C1493      N1497   1.157       .  T
C1494      N1500   1.157       .  T
C1495      N1504   1.157       .  T
C1496      N1502   1.157       .  T
C1505      C1506   1.408       .  A
C1505      C1510   1.408       .  A
C1505      C1523   1.452       .  S
C1506      C1511   1.498       .  S
C1506      C1507   1.414       .  A
C1507      C1508   1.413       .  A
C1507      C1512   1.446       .  S
C1508      C1509   1.410       .  A
C1508      C1524   1.450       .  S
C1509      C1510   1.416       .  A
C1510      C1513   1.451       .  S
C1511      C1514   1.402       .  A
C1511      C1518   1.404       .  A
C1512      N1529   1.156       .  T
C1513      N1531   1.157       .  T
C1514      C1515   1.413       .  A
C1514      C1519   1.454       .  S
C1515      C1516   1.421       .  A
C1515      C1521   1.437       .  S
C1516      C1517   1.422       .  A
C1517      C1518   1.413       .  A
C1517      C1520   1.446       .  S
C1518      C1522   1.447       .  S
C1519      N1526   1.157       .  T
C1520      N1527   1.155       .  T
C1521      N1525   1.155       .  T
C1522      N1528   1.155       .  T
C1523      N1532   1.157       .  T
C1524      N1530   1.157   1_556  T
C1533      C1534   1.413       .  A
C1533      C1538   1.407       .  A
C1533      C1551   1.445       .  S
C1534      C1539   1.493       .  S
C1534      C1535   1.411       .  A
C1535      C1536   1.408       .  A
C1535      C1540   1.451       .  S
C1536      C1537   1.412       .  A
C1536      C1552   1.451       .  S
C1537      C1538   1.405       .  A
C1538      C1541   1.452       .  S
C1539      C1542   1.406       .  A
C1539      C1546   1.405       .  A
C1540      N1557   1.157       .  T
C1541      N1559   1.157   1_556  T
C1542      C1543   1.412       .  A
C1542      C1547   1.452       .  S
C1543      C1544   1.424       .  A
C1543      C1549   1.445       .  S
C1544      C1545   1.418       .  A
C1545      C1546   1.410       .  A
C1545      C1548   1.444       .  S
C1546      C1550   1.450       .  S
C1547      N1554   1.157       .  T
C1548      N1555   1.156       .  T
C1549      N1553   1.158       .  T
C1550      N1556   1.157       .  T
C1551      N1560   1.155       .  T
C1552      N1558   1.157       .  T
C1561      C1562   1.413       .  A
C1561      C1566   1.409       .  A
C1561      C1579   1.448       .  S
C1562      C1567   1.494       .  S
C1562      C1563   1.409       .  A
C1563      C1564   1.406       .  A
C1563      C1568   1.452       .  S
C1564      C1565   1.417       .  A
C1564      C1580   1.452       .  S
C1565      C1566   1.411       .  A
C1566      C1569   1.451       .  S
C1567      C1570   1.401       .  A
C1567      C1574   1.405       .  A
C1568      N1585   1.157       .  T
C1569      N1587   1.157       .  T
C1570      C1571   1.409       .  A
C1570      C1575   1.450       .  S
C1571      C1572   1.420       .  A
C1571      C1577   1.439       .  S
C1572      C1573   1.422       .  A
C1573      C1574   1.413       .  A
C1573      C1576   1.441       .  S
C1574      C1578   1.454       .  S
C1575      N1582   1.156       .  T
C1576      N1583   1.156       .  T
C1577      N1581   1.153       .  T
C1578      N1584   1.157       .  T
C1579      N1588   1.156       .  T
C1580      N1586   1.157       .  T
C1589      C1590   1.405       .  A
C1589      C1594   1.414       .  A
C1589      C1607   1.451       .  S
C1590      C1595   1.501       .  S
C1590      C1591   1.405       .  A
C1591      C1592   1.415       .  A
C1591      C1596   1.452       .  S
C1592      C1593   1.429       .  A
C1592      C1608   1.447       .  S
C1593      C1594   1.428       .  A
C1594      C1597   1.448       .  S
C1595      C1598   1.411       .  A
C1595      C1602   1.411       .  A
C1596      N1613   1.157       .  T
C1597      N1615   1.157       .  T
C1598      C1599   1.412       .  A
C1598      C1603   1.451       .  S
C1599      C1600   1.415       .  A
C1599      C1605   1.450       .  S
C1600      C1601   1.409       .  A
C1601      C1602   1.412       .  A
C1601      C1604   1.450       .  S
C1602      C1606   1.447       .  S
C1603      N1610   1.157       .  T
C1604      N1611   1.157   1_554  T
C1605      N1609   1.157       .  T
C1606      N1612   1.156       .  T
C1607      N1616   1.157       .  T
C1608      N1614   1.158       .  T
C1617      C1622   1.418       .  A
C1617      C1635   1.450       .  S
C1618      C1623   1.502       .  S
C1618      C1619   1.406   1_455  A
C1619      C1620   1.410       .  A
C1619      C1624   1.452       .  S
C1620      C1621   1.424   1_655  A
C1620      C1636   1.450       .  S
C1622      C1625   1.449       .  S
C1623      C1630   1.403   1_455  A
C1624      N1641   1.156       .  T
C1625      N1643   1.157       .  T
C1626      C1627   1.415       .  A
C1626      C1631   1.448       .  S
C1627      C1633   1.449       .  S
C1628      C1629   1.427   1_455  A
C1629      C1630   1.413       .  A
C1629      C1632   1.447       .  S
C1630      C1634   1.453       .  S
C1631      N1638   1.156       .  T
C1632      N1639   1.156       .  T
C1633      N1637   1.157       .  T
C1634      N1640   1.157       .  T
C1635      N1644   1.157       .  T
C1636      N1642   1.157       .  T
C1645      C1646   1.407       .  A
C1645      C1650   1.416       .  A
C1645      C1663   1.454       .  S
C1646      C1651   1.505       .  S
C1646      C1647   1.404       .  A
C1647      C1648   1.418       .  A
C1647      C1652   1.451       .  S
C1648      C1649   1.423       .  A
C1648      C1664   1.441       .  S
C1649      C1650   1.422       .  A
C1650      C1653   1.441       .  S
C1651      C1654   1.410       .  A
C1651      C1658   1.414       .  A
C1652      N1669   1.157       .  T
C1653      N1671   1.156       .  T
C1654      C1655   1.411       .  A
C1654      C1659   1.451       .  S
C1655      C1656   1.417       .  A
C1655      C1661   1.451       .  S
C1656      C1657   1.412       .  A
C1657      C1658   1.415       .  A
C1657      C1660   1.450       .  S
C1658      C1662   1.446       .  S
C1659      N1666   1.157       .  T
C1660      N1667   1.157       .  T
C1661      N1665   1.157       .  T
C1662      N1668   1.156       .  T
C1663      N1672   1.157       .  T
C1664      N1670   1.154       .  T
C1673      C1674   1.405       .  A
C1673      C1678   1.411       .  A
C1673      C1691   1.451       .  S
C1674      C1679   1.500       .  S
C1674      C1675   1.406       .  A
C1675      C1676   1.415       .  A
C1675      C1680   1.452       .  S
C1676      C1677   1.428       .  A
C1676      C1692   1.447       .  S
C1677      C1678   1.428       .  A
C1678      C1681   1.449       .  S
C1679      C1682   1.412       .  A
C1679      C1686   1.413       .  A
C1680      N1697   1.157       .  T
C1681      N1699   1.157       .  T
C1682      C1683   1.409       .  A
C1682      C1687   1.452       .  S
C1683      C1684   1.412       .  A
C1683      C1689   1.449       .  S
C1684      C1685   1.410       .  A
C1685      C1686   1.413       .  A
C1685      C1688   1.450       .  S
C1686      C1690   1.449       .  S
C1687      N1694   1.157       .  T
C1688      N1695   1.157       .  T
C1689      N1693   1.156       .  T
C1690      N1696   1.157       .  T
C1691      N1700   1.157       .  T
C1701      C1702   1.403       .  A
C1701      C1706   1.409       .  A
C1701      C1719   1.455       .  S
C1702      C1707   1.496       .  S
C1702      C1703   1.406       .  A
C1703      C1704   1.415       .  A
C1703      C1708   1.452       .  S
C1704      C1705   1.427       .  A
C1704      C1720   1.449       .  S
C1705      C1706   1.424       .  A
C1706      C1709   1.442       .  S
C1707      C1710   1.409       .  A
C1707      C1714   1.409       .  A
C1708      N1725   1.157       .  T
C1709      N1727   1.154       .  T
C1710      C1711   1.408       .  A
C1710      C1715   1.453       .  S
C1711      C1712   1.420       .  A
C1711      C1717   1.451       .  S
C1712      C1713   1.421       .  A
C1713      C1714   1.411       .  A
C1713      C1716   1.451       .  S
C1714      C1718   1.450       .  S
C1715      N1722   1.157       .  T
C1716      N1723   1.158       .  T
C1717      N1721   1.157       .  T
C1718      N1724   1.157       .  T
C1719      N1728   1.157       .  T
C1720      N1726   1.157       .  T
C1729      C1730   1.409       .  A
C1729      C1734   1.416       .  A
C1729      C1747   1.450       .  S
C1730      C1735   1.499       .  S
C1730      C1731   1.407       .  A
C1731      C1732   1.408       .  A
C1731      C1736   1.453       .  S
C1732      C1733   1.423       .  A
C1732      C1748   1.450       .  S
C1733      C1734   1.423       .  A
C1734      C1737   1.450       .  S
C1735      C1738   1.408       .  A
C1735      C1742   1.409       .  A
C1736      N1753   1.157       .  T
C1737      N1755   1.157       .  T
C1738      C1739   1.410       .  A
C1738      C1743   1.451       .  S
C1739      C1740   1.416       .  A
C1739      C1745   1.442       .  S
C1740      C1741   1.419       .  A
C1741      C1742   1.414       .  A
C1741      C1744   1.447       .  S
C1742      C1746   1.451       .  S
C1743      N1750   1.157       .  T
C1744      N1751   1.158       .  T
C1745      N1749   1.156       .  T
C1746      N1752   1.157       .  T
C1747      N1756   1.157       .  T
C1748      N1754   1.157       .  T
C1757      C1762   1.417       .  A
C1757      C1775   1.449       .  S
C1758      C1763   1.501       .  S
C1758      C1759   1.401   1_455  A
C1759      C1760   1.412       .  A
C1759      C1764   1.455       .  S
C1760      C1761   1.429   1_655  A
C1760      C1776   1.443       .  S
C1762      C1765   1.443       .  S
C1763      C1770   1.405   1_455  A
C1764      N1781   1.157       .  T
C1765      N1783   1.156       .  T
C1766      C1767   1.418       .  A
C1766      C1771   1.450       .  S
C1767      C1773   1.449       .  S
C1768      C1769   1.425   1_455  A
C1769      C1770   1.410       .  A
C1769      C1772   1.450       .  S
C1770      C1774   1.452       .  S
C1771      N1778   1.157       .  T
C1772      N1779   1.157       .  T
C1773      N1777   1.157       .  T
C1774      N1780   1.156       .  T
C1775      N1784   1.156       .  T
C1776      N1782   1.156       .  T
C1785      C1786   1.409       .  A
C1785      C1790   1.413       .  A
C1785      C1803   1.448       .  S
C1786      C1791   1.503       .  S
C1786      C1787   1.407       .  A
C1787      C1788   1.411       .  A
C1787      C1792   1.453       .  S
C1788      C1789   1.426       .  A
C1788      C1804   1.451       .  S
C1789      C1790   1.423       .  A
C1790      C1793   1.451       .  S
C1791      C1794   1.407       .  A
C1791      C1798   1.403       .  A
C1792      N1809   1.157       .  T
C1793      N1811   1.157       .  T
C1794      C1795   1.417       .  A
C1794      C1799   1.452       .  S
C1795      C1796   1.422       .  A
C1795      C1801   1.443       .  S
C1796      C1797   1.422       .  A
C1797      C1798   1.411       .  A
C1797      C1800   1.435       .  S
C1798      C1802   1.454       .  S
C1799      N1806   1.157       .  T
C1800      N1807   1.153       .  T
C1801      N1805   1.156       .  T
C1802      N1808   1.157       .  T
C1803      N1812   1.155       .  T
C1804      N1810   1.157   1_556  T
C1813      C1814   1.405       .  A
C1813      C1818   1.406       .  A
C1813      C1831   1.456       .  S
C1814      C1819   1.495       .  S
C1814      C1815   1.410       .  A
C1815      C1816   1.414       .  A
C1815      C1820   1.451       .  S
C1816      C1817   1.425       .  A
C1816      C1832   1.452       .  S
C1817      C1818   1.430       .  A
C1818      C1821   1.452       .  S
C1819      C1822   1.408       .  A
C1819      C1826   1.408       .  A
C1820      N1837   1.157       .  T
C1821      N1839   1.157   1_556  T
C1822      C1823   1.413       .  A
C1822      C1827   1.453       .  S
C1823      C1824   1.418       .  A
C1823      C1829   1.446       .  S
C1824      C1825   1.413       .  A
C1825      C1826   1.406       .  A
C1825      C1828   1.443       .  S
C1826      C1830   1.453       .  S
C1827      N1834   1.157       .  T
C1828      N1835   1.155       .  T
C1829      N1833   1.156       .  T
C1830      N1836   1.157       .  T
C1831      N1840   1.157       .  T
C1832      N1838   1.158       .  T
C1841      C1842   1.408       .  A
C1841      C1846   1.414       .  A
C1841      C1859   1.453       .  S
C1842      C1847   1.513       .  S
C1843      C1844   1.419       .  A
C1843      C1848   1.447       .  S
C1844      C1860   1.447       .  S
C1845      C1846   1.420       .  A
C1846      C1849   1.442       .  S
C1847      C1850   1.417       .  A
C1848      N1865   1.156       .  T
C1849      N1867   1.156       .  T
C1850      C1851   1.412       .  A
C1850      C1855   1.452       .  S
C1851      C1852   1.411       .  A
C1851      C1857   1.449       .  S
C1853      C1854   1.418       .  A
C1853      C1856   1.450       .  S
C1854      C1858   1.450       .  S
C1855      N1862   1.157       .  T
C1856      N1863   1.157       .  T
C1857      N1861   1.156       .  T
C1858      N1864   1.157       .  T
C1859      N1868   1.157       .  T
C1860      N1866   1.156       .  T
C1869      C1870   1.407       .  A
C1869      C1874   1.414       .  A
C1869      C1887   1.451       .  S
C1870      C1875   1.498       .  S
C1870      C1871   1.403       .  A
C1871      C1872   1.409       .  A
C1871      C1876   1.454       .  S
C1872      C1873   1.424       .  A
C1872      C1888   1.440       .  S
C1873      C1874   1.425       .  A
C1874      C1877   1.449       .  S
C1875      C1878   1.410       .  A
C1875      C1882   1.410       .  A
C1876      N1893   1.157       .  T
C1877      N1895   1.157       .  T
C1878      C1879   1.412       .  A
C1878      C1883   1.450       .  S
C1879      C1880   1.420       .  A
C1879      C1885   1.449       .  S
C1880      C1881   1.418       .  A
C1881      C1882   1.409       .  A
C1881      C1884   1.450       .  S
C1882      C1886   1.452       .  S
C1883      N1890   1.157       .  T
C1884      N1891   1.157   1_554  T
C1885      N1889   1.157       .  T
C1886      N1892   1.157       .  T
C1887      N1896   1.157       .  T
C1888      N1894   1.154       .  T
C1897      C1898   1.409       .  A
C1897      C1902   1.409       .  A
C1897      C1915   1.452       .  S
C1898      C1903   1.502       .  S
C1898      C1899   1.411       .  A
C1899      C1900   1.415       .  A
C1899      C1904   1.449       .  S
C1900      C1901   1.420       .  A
C1900      C1916   1.451       .  S
C1901      C1902   1.420       .  A
C1902      C1905   1.450   1_554  S
C1903      C1906   1.408       .  A
C1903      C1910   1.408       .  A
C1904      N1921   1.157       .  T
C1905      N1923   1.157       .  T
C1906      C1907   1.415       .  A
C1906      C1911   1.451       .  S
C1907      C1908   1.422       .  A
C1907      C1913   1.446       .  S
C1908      C1909   1.419       .  A
C1909      C1910   1.412       .  A
C1909      C1912   1.442       .  S
C1910      C1914   1.452       .  S
C1911      N1918   1.157       .  T
C1912      N1919   1.155       .  T
C1913      N1917   1.158       .  T
C1914      N1920   1.157       .  T
C1915      N1924   1.157       .  T
C1916      N1922   1.158       .  T
C1925      C1930   1.412       .  A
C1925      C1943   1.450       .  S
C1926      C1931   1.501       .  S
C1926      C1927   1.415       .  A
C1927      C1928   1.408       .  A
C1927      C1932   1.452       .  S
C1928      C1929   1.409       .  A
C1928      C1944   1.450       .  S
C1930      C1933   1.451       .  S
C1931      C1938   1.403       .  A
C1932      N1949   1.157       .  T
C1933      N1951   1.157       .  T
C1934      C1935   1.416       .  A
C1934      C1939   1.449       .  S
C1935      C1941   1.448       .  S
C1936      C1937   1.427       .  A
C1937      C1938   1.408       .  A
C1937      C1940   1.446       .  S
C1938      C1942   1.455       .  S
C1939      N1946   1.157       .  T
C1940      N1947   1.156       .  T
C1941      N1945   1.157       .  T
C1942      N1948   1.157       .  T
C1943      N1952   1.157       .  T
C1944      N1950   1.157       .  T
