geometry optimzed in LAMMPS
_audit_creation_date              2020-11-30 
_audit_creation_method            'lammps2cif' 
_symmetry_space_group_name_H-M    'P1' 
_symmetry_Int_Tables_number       1 
_symmetry_cell_setting            triclinic 
loop_ 
_symmetry_equiv_pos_as_xyz 
  x,y,z 
_cell_length_a                    41.18861939 
_cell_length_b                    41.13701308327547 
_cell_length_c                    43.973844587681576 
_cell_angle_alpha                 90.13562101850316 
_cell_angle_beta                  89.8894378004054 
_cell_angle_gamma                 120.09994766885272 
loop_ 
_atom_site_label 
_atom_site_type_symbol 
_atom_site_fract_x 
_atom_site_fract_y 
_atom_site_fract_z 
_atom_site_charge 
O1          O  0.47036390  0.07144370  0.30221357    -0.74200
O2          O  0.48524081  0.04038954  0.33718310    -0.53100
C3          C  0.47346762  0.06285770  0.32979065     0.79500
O4          O  0.39698143  0.93269992  0.19831800    -0.58800
O5          O  0.44282142  0.96321659  0.16314784    -0.51800
C6          C  0.40849602  0.94115352  0.17066942     0.71500
O7          O  0.39649333  0.93405388  0.30134260    -0.73400
O8          O  0.44339416  0.96254138  0.33613009    -0.53900
C9          C  0.40868091  0.94177465  0.32887307     0.77500
O10         O  0.47101979  0.07378851  0.19922881    -0.58500
O11         O  0.48523898  0.04248333  0.16388297    -0.51600
C12         C  0.47389385  0.06524663  0.17153344     0.74100
Zr13       Zr  0.48241616  0.05873111  0.25039389     2.54700
O14         O  0.42943596  0.06949653  0.25107936    -0.79100
O15         O  0.52435998  0.12639454  0.25166236    -0.92500
Zr16       Zr  0.42235793  0.94641290  0.24990630     2.64700
O17         O  0.36158868  0.94307898  0.25055743    -0.97500
O18         O  0.39053469  0.87803976  0.24950734    -0.79500
O19         O  0.45184946  0.00249866  0.27906307    -0.82900
O20         O  0.45119345  0.00272880  0.22135256    -2.17600
O21         O  0.60129150  0.06747684  0.19692492    -0.66300
O22         O  0.55471174  0.03725117  0.16226258    -0.50800
C23         C  0.58929694  0.05864004  0.16938310     0.72500
O24         O  0.52794346  0.92765775  0.30029223    -0.59200
O25         O  0.51673940  0.96112851  0.33601215    -0.51100
C26         C  0.52614634  0.93694353  0.32800792     0.74300
O27         O  0.52694452  0.92812823  0.19697347    -0.70600
O28         O  0.51413606  0.96105871  0.16229602    -0.49200
C29         C  0.52495374  0.93775782  0.16944649     0.75700
O30         O  0.60248202  0.06858408  0.30024967    -0.65900
O31         O  0.55657321  0.03787211  0.33556116    -0.53100
C32         C  0.59082034  0.05994196  0.32783490     0.74100
Zr33       Zr  0.57654724  0.05473232  0.24896160     2.77500
O34         O  0.63624074  0.05586079  0.24985115    -0.96600
O35         O  0.61064266  0.12313375  0.24757561    -0.77500
Zr36       Zr  0.51633100  0.94227873  0.24894451     2.70100
O37         O  0.57024860  0.93308430  0.24696504    -0.78700
O38         O  0.47387914  0.87462936  0.24940242    -0.97800
Zr39       Zr  0.49998298  0.00039981  0.30716830     2.21500
Zr40       Zr  0.49900616  0.00084113  0.19216637     2.11100
O41         O  0.54697998  0.99851038  0.22041127    -2.46500
O42         O  0.54750200  0.99843922  0.27784781    -0.78500
O43         O  0.52988532  0.05829938  0.21994463    -0.70700
O44         O  0.46899904  0.94311471  0.27917513    -2.31700
O45         O  0.53043363  0.05788780  0.27934674    -2.27900
O46         O  0.46850005  0.94322416  0.21961619    -0.72500
H47         H  0.43255722  0.00354568  0.20860262     0.79500
H48         H  0.45769537  0.92170666  0.29268163     0.80600
H49         H  0.56543267  0.99767629  0.20738899     0.82800
H50         H  0.54196798  0.07939112  0.29281424     0.80500
H51         H  0.39342917  0.87107108  0.27044397     0.43500
H52         H  0.49061185  0.86388093  0.24790725     0.42500
H53         H  0.59151740  0.95729542  0.25403465     0.42100
H54         H  0.63486363  0.03948954  0.23277261     0.40100
H55         H  0.63011208  0.13081117  0.26350421     0.43200
H56         H  0.50904535  0.13685335  0.24366301     0.38000
H57         H  0.40858067  0.04659755  0.24178136     0.44100
H58         H  0.36424527  0.96272003  0.23613661     0.40500
H59         H  0.65501704  0.08159468  0.24332018     0.45400
H60         H  0.54295816  0.13130790  0.23543769     0.44200
H61         H  0.34415673  0.91901670  0.24041721     0.44300
H62         H  0.46394335  0.86886057  0.27042172     0.44700
O63         O  0.06666761  0.60541238  0.30107191    -0.74200
O64         O  0.03797169  0.55894497  0.33616958    -0.53100
C65         C  0.05829083  0.59363589  0.32871167     0.79500
O66         O  0.93073015  0.53557728  0.19863401    -0.58800
O67         O  0.96290713  0.52175663  0.16374247    -0.51800
C68         C  0.94034352  0.53349612  0.17111289     0.71500
O69         O  0.93376234  0.53715295  0.30110291    -0.73400
O70         O  0.96180262  0.51936327  0.33653703    -0.53900
C71         C  0.94126219  0.53333436  0.32880089     0.77500
O72         O  0.07203791  0.60393341  0.19802718    -0.58500
O73         O  0.04075955  0.55797316  0.16295096    -0.51600
C74         C  0.06347595  0.59224804  0.17035804     0.74100
Zr75       Zr  0.05720608  0.57848833  0.24980283     2.54700
O76         O  0.06591167  0.64148450  0.24830716    -0.79100
O77         O  0.12495562  0.60563044  0.25202170    -0.92500
Zr78       Zr  0.94476032  0.52269475  0.24976825     2.64700
O79         O  0.93753014  0.57789730  0.25176653    -0.97500
O80         O  0.87704636  0.48082772  0.25171668    -0.79500
O81         O  0.00097035  0.55092613  0.27844262    -0.82900
O82         O  0.00107466  0.55168009  0.22110396    -2.17600
O83         O  0.07084357  0.47137985  0.19753246    -0.66300
O84         O  0.03862513  0.48478462  0.16250654    -0.50800
C85         C  0.06152437  0.47356804  0.16993606     0.72500
O86         O  0.93067476  0.40000429  0.30069848    -0.59200
O87         O  0.96283485  0.44570728  0.33582675    -0.51100
C88         C  0.94035849  0.41144160  0.32825889     0.74300
O89         O  0.92657562  0.40207092  0.19787533    -0.70600
O90         O  0.96039960  0.44737497  0.16276828    -0.49200
C91         C  0.93586944  0.41373817  0.17035930     0.75700
O92         O  0.06928413  0.46860419  0.30098772    -0.65900
O93         O  0.04129170  0.48691820  0.33629920    -0.53100
C94         C  0.06244255  0.47352625  0.32872234     0.74100
Zr95       Zr  0.05603216  0.48152491  0.24953171     2.77500
O96         O  0.06119470  0.42507035  0.24953290    -0.96600
O97         O  0.12408412  0.51999821  0.25116849    -0.77500
Zr98       Zr  0.94360504  0.42641081  0.24952260     2.70100
O99         O  0.93700559  0.36427181  0.24675758    -0.78700
O100        O  0.87563866  0.39791277  0.25168879    -0.97800
Zr101      Zr  0.00079624  0.50225316  0.30737389     2.21500
Zr102      Zr  0.00065924  0.50260577  0.19206949     2.11100
O103        O  0.99979538  0.45310015  0.22073811    -2.46500
O104        O  0.99980787  0.45294850  0.27838483    -0.78500
O105        O  0.05797624  0.53070867  0.21989819    -0.70700
O106        O  0.94329736  0.47406127  0.27964015    -2.31700
O107        O  0.05807517  0.53072413  0.27938023    -2.27900
O108        O  0.94304771  0.47405842  0.21956908    -0.72500
H109        H  0.00141203  0.57092349  0.20833993     0.79500
H110        H  0.92188440  0.46345050  0.29315724     0.80600
H111        H  0.99932668  0.43395581  0.20764684     0.82800
H112        H  0.07954880  0.54140848  0.29279508     0.80500
H113        H  0.86646365  0.49548571  0.24259528     0.43500
H114        H  0.86871394  0.40414617  0.23188873     0.42500
H115        H  0.96249184  0.36913031  0.24169988     0.42100
H116        H  0.04276849  0.40833723  0.23419992     0.40100
H117        H  0.13240856  0.50383696  0.26109576     0.43200
H118        H  0.13118187  0.61067769  0.27389012     0.38000
H119        H  0.04018084  0.63738817  0.24630720     0.44100
H120        H  0.95712619  0.59625766  0.23793814     0.40500
H121        H  0.08601975  0.43289976  0.24036587     0.45400
H122        H  0.13509116  0.63084034  0.24282058     0.44200
H123        H  0.91349364  0.57040410  0.24135399     0.44300
H124        H  0.86613496  0.37055003  0.25053737     0.44700
O125        O  0.39633410  0.46280614  0.30210145    -0.74200
O126        O  0.44260629  0.47951931  0.33708505    -0.53100
C127        C  0.40804857  0.46598781  0.32973350     0.79500
O128        O  0.46895020  0.39801003  0.19600440    -0.58800
O129        O  0.48279274  0.44495606  0.16206002    -0.51800
C130        C  0.47209227  0.41066304  0.16871921     0.71500
O131        O  0.46189697  0.39341257  0.29909611    -0.73400
O132        O  0.47728296  0.43876388  0.33486642    -0.53900
C133        C  0.46404980  0.40443377  0.32686014     0.77500
O134        O  0.39739687  0.46976664  0.19925333    -0.58500
O135        O  0.44313143  0.48385050  0.16416551    -0.51600
C136        C  0.40897236  0.47271515  0.17161810     0.74100
Zr137      Zr  0.42274521  0.47853305  0.25066330     2.54700
O138        O  0.36231305  0.42073955  0.24823733    -0.79100
O139        O  0.39177226  0.51566973  0.25298212    -0.92500
Zr140      Zr  0.47753288  0.42126544  0.24837009     2.64700
O141        O  0.42016893  0.36027780  0.24637889    -0.97500
O142        O  0.51590243  0.39158963  0.24875702    -0.79500
O143        O  0.44954224  0.44863088  0.27826574    -0.82900
O144        O  0.44968521  0.45017430  0.22065007    -2.17600
O145        O  0.53073812  0.60171881  0.20101623    -0.66300
O146        O  0.51678159  0.55678442  0.16512090    -0.50800
C147        C  0.52814933  0.59083517  0.17317848     0.72500
O148        O  0.60002193  0.53086548  0.30195859    -0.59200
O149        O  0.55338096  0.51110157  0.33712100    -0.51100
C150        C  0.58807560  0.52585054  0.32964007     0.74300
O151        O  0.60072871  0.52880987  0.19892178    -0.70600
O152        O  0.55521977  0.51614611  0.16387384    -0.49200
C153        C  0.58923196  0.52671269  0.17134234     0.75700
O154        O  0.53517058  0.59895034  0.30408031    -0.65900
O155        O  0.51867767  0.55196352  0.33839154    -0.53100
C156        C  0.53247126  0.58672380  0.33149513     0.74100
Zr157      Zr  0.51977101  0.57451060  0.25204798     2.77500
O158        O  0.57576050  0.63671300  0.25202632    -0.96600
O159        O  0.47909109  0.60157208  0.25446310    -0.77500
Zr160      Zr  0.57430233  0.51652179  0.25034297     2.70100
O161        O  0.63869037  0.56857323  0.25063437    -0.78700
O162        O  0.59639051  0.47166160  0.25175340    -0.97800
Zr163      Zr  0.49829869  0.49644737  0.30776970     2.21500
Zr164      Zr  0.49917906  0.49973774  0.19271454     2.11100
O165        O  0.54826330  0.54733399  0.22250754    -2.46500
O166        O  0.54765621  0.54556477  0.27974306    -0.78500
O167        O  0.47089781  0.52798005  0.22163016    -0.70700
O168        O  0.52615009  0.46741248  0.27925421    -2.31700
O169        O  0.47035712  0.52656863  0.28109244    -2.27900
O170        O  0.52678847  0.46943681  0.21944078    -0.72500
H171        H  0.43084329  0.43173327  0.20730209     0.79500
H172        H  0.53633149  0.45603006  0.29245471     0.80600
H173        H  0.56750950  0.56653779  0.20991423     0.82800
H174        H  0.45983921  0.53713082  0.29494503     0.80500
H175        H  0.49863655  0.36556173  0.25562470     0.43500
H176        H  0.60466492  0.47115237  0.23069357     0.42500
H177        H  0.63746374  0.58928535  0.24028822     0.42100
H178        H  0.59194002  0.63581736  0.23574230     0.40100
H179        H  0.49201604  0.62465212  0.24198596     0.43200
H180        H  0.36564353  0.49804895  0.24656989     0.38000
H181        H  0.36743550  0.40285801  0.23706557     0.44100
H182        H  0.40365420  0.36366819  0.23197830     0.40500
H183        H  0.56736219  0.65384147  0.24420157     0.45400
H184        H  0.40271498  0.53358039  0.23587043     0.44200
H185        H  0.42720788  0.34352216  0.23564996     0.44300
H186        H  0.61990102  0.48442846  0.26369919     0.44700
O187        O  0.79095205  0.47136170  0.00282426    -0.74200
O188        O  0.85239145  0.51749914  0.99946112    -0.53100
C189        C  0.82379557  0.48148318  0.49854061     0.79500
O190        O  0.73149584  0.57563995  0.41498204    -0.58800
O191        O  0.69166803  0.57114501  0.45292338    -0.51800
C192        C  0.70001645  0.57119958  0.42466929     0.71500
O193        O  0.83944068  0.57453816  0.41388908    -0.73400
O194        O  0.87810977  0.57456348  0.45084158    -0.53900
C195        C  0.86832199  0.57295491  0.42285072     0.77500
O196        O  0.68130077  0.47037847  0.00714529    -0.58500
O197        O  0.66410969  0.51656499  0.49878705    -0.51600
C198        C  0.65586660  0.48208604  0.49613710     0.74100
Zr199      Zr  0.74863102  0.49660130  0.00215086     2.54700
O200        O  0.72730976  0.45261989  0.45431368    -0.79100
O201        O  0.72425544  0.44862833  0.04156435    -0.92500
Zr202      Zr  0.78842051  0.58014803  0.43603677     2.64700
O203        O  0.76779505  0.53794123  0.39234739    -0.97500
O204        O  0.81564415  0.63593077  0.40401009    -0.79500
O205        O  0.79901341  0.53784396  0.46535903    -0.82900
O206        O  0.73658049  0.53745422  0.46592105    -2.17600
O207        O  0.73050483  0.56974944  0.08488399    -0.66300
O208        O  0.69126117  0.56814932  0.04769726    -0.50800
C209        C  0.69937688  0.56650224  0.07567367     0.72500
O210        O  0.89677339  0.68130221  0.50566599    -0.59200
O211        O  0.90902180  0.63298145  0.50280876    -0.51100
C212        C  0.91882974  0.66894879  0.00357709     0.74300
O213        O  0.78552831  0.68210121  0.50343295    -0.70600
O214        O  0.72473961  0.63362088  0.50363399    -0.49200
C215        C  0.74801238  0.66753728  0.00351646     0.75700
O216        O  0.84145844  0.57436530  0.08494828    -0.65900
O217        O  0.87881972  0.57272691  0.04738725    -0.53100
C218        C  0.86984859  0.57213939  0.07550323     0.74100
Zr219      Zr  0.78896326  0.57818504  0.06387653     2.77500
O220        O  0.81509039  0.63338839  0.09665442    -0.96600
O221        O  0.76816678  0.53653716  0.10771313    -0.77500
Zr222      Zr  0.82773704  0.65545631  0.50209906     2.70100
O223        O  0.85184784  0.70865360  0.03320215    -0.78700
O224        O  0.85431646  0.70186293  0.46163379    -0.97800
Zr225      Zr  0.84949905  0.57514848  0.49894070     2.21500
Zr226      Zr  0.72424638  0.57488652  0.50008298     2.11100
O227        O  0.77607892  0.61634605  0.03182935    -2.46500
O228        O  0.83982920  0.61714678  0.03156318    -0.78500
O229        O  0.73715284  0.53639151  0.03363885    -0.70700
O230        O  0.84003415  0.61769690  0.46833075    -2.31700
O231        O  0.79962823  0.53655628  0.03371692    -2.27900
O232        O  0.77595519  0.61800741  0.46925824    -0.72500
H233        H  0.71533724  0.52218461  0.45299994     0.79500
H234        H  0.86208365  0.63340615  0.45625049     0.80600
H235        H  0.76952567  0.63138423  0.04446065     0.82800
H236        H  0.80576692  0.52127670  0.04640529     0.80500
H237        H  0.79681447  0.63015914  0.38783565     0.43500
H238        H  0.83232235  0.70009836  0.45100830     0.42500
H239        H  0.85759527  0.69940334  0.05204857     0.42100
H240        H  0.80093468  0.62425011  0.11594240     0.40100
H241        H  0.76506039  0.51256766  0.09983813     0.43200
H242        H  0.74517456  0.45662432  0.05616997     0.38000
H243        H  0.74469851  0.46684100  0.43751624     0.44100
H244        H  0.74123750  0.51915859  0.39660866     0.40500
H245        H  0.84067008  0.63852092  0.10164206     0.45400
H246        H  0.72202406  0.42598851  0.03159896     0.44200
H247        H  0.76678988  0.55305921  0.37527263     0.44300
H248        H  0.86585021  0.72636666  0.47231189     0.44700
O249        O  0.68184041  0.21197790  0.99149245    -0.74200
O250        O  0.66483736  0.15021385  0.99658428    -0.53100
C251        C  0.65777209  0.17833679  0.49184607     0.79500
O252        O  0.84255036  0.26978812  0.41361946    -0.58800
O253        O  0.88037210  0.30869249  0.45101121    -0.51800
C254        C  0.87113680  0.30044350  0.42296873     0.71500
O255        O  0.73244679  0.16091831  0.41239279    -0.73400
O256        O  0.69265725  0.12454043  0.45005441    -0.53900
C257        C  0.70126995  0.13320938  0.42195823     0.77500
O258        O  0.79139151  0.32103582  0.00001328    -0.58500
O259        O  0.85314388  0.33701586  0.49869640    -0.51600
C260        C  0.82708231  0.34557331  0.50056745     0.74100
Zr261      Zr  0.74909227  0.25318019  0.99809323     2.54700
O262        O  0.73295838  0.28235393  0.45519776    -0.79100
O263        O  0.72255159  0.27140010  0.03974866    -0.92500
Zr264      Zr  0.78918216  0.21317062  0.43396775     2.64700
O265        O  0.76507730  0.23431018  0.39260269    -0.97500
O266        O  0.81668747  0.18841875  0.39823625    -0.79500
O267        O  0.73757711  0.20294262  0.46463469    -0.82900
O268        O  0.80074557  0.26548934  0.46460789    -2.17600
O269        O  0.83192834  0.27323458  0.08365502    -0.66300
O270        O  0.87546991  0.30958177  0.04832292    -0.50800
C271        C  0.86183212  0.30333508  0.07547071     0.72500
O272        O  0.78256700  0.10357454  0.49803247    -0.59200
O273        O  0.72226136  0.09206798  0.49535552    -0.51100
C274        C  0.74832201  0.08153056  0.99771873     0.74300
O275        O  0.89539494  0.21457002  0.49679605    -0.70600
O276        O  0.90931718  0.27583071  0.49475729    -0.49200
C277        C  0.91883316  0.25089340  0.99785284     0.75700
O278        O  0.72843483  0.16032763  0.08310218    -0.65900
O279        O  0.69157025  0.12117009  0.04546116    -0.53100
C280        C  0.69880104  0.13074500  0.07360627     0.74100
Zr281      Zr  0.78575306  0.21285461  0.06290242     2.77500
O282        O  0.81575747  0.18911322  0.09676125    -0.96600
O283        O  0.76170008  0.22868426  0.10774683    -0.77500
Zr284      Zr  0.82628832  0.17273961  0.49824137     2.70100
O285        O  0.84636197  0.15300453  0.04652443    -0.78700
O286        O  0.84740768  0.14939628  0.45621344    -0.97800
Zr287      Zr  0.72444159  0.15195972  0.49746000     2.21500
Zr288      Zr  0.85100544  0.27650122  0.49769074     2.11100
O289        O  0.83896737  0.22530576  0.03325249    -2.46500
O290        O  0.77412379  0.16085803  0.03212958    -0.78500
O291        O  0.79845519  0.26475871  0.03160315    -0.70700
O292        O  0.77562543  0.16141317  0.46568560    -2.31700
O293        O  0.73517826  0.20226462  0.03078580    -2.27900
O294        O  0.83985511  0.22455795  0.46612087    -0.72500
H295        H  0.80696790  0.28717794  0.45221798     0.79500
H296        H  0.76881749  0.13964752  0.45318447     0.80600
H297        H  0.86033231  0.23207366  0.04628342     0.82800
H298        H  0.71314898  0.19647705  0.04262995     0.80500
H299        H  0.80300714  0.16096277  0.40179752     0.43500
H300        H  0.86512620  0.17216252  0.44471651     0.42500
H301        H  0.86195052  0.14284662  0.03847815     0.42100
H302        H  0.81819798  0.20213876  0.11631049     0.40100
H303        H  0.75020394  0.24304960  0.09971634     0.43200
H304        H  0.71333205  0.28692617  0.03002353     0.38000
H305        H  0.72844877  0.26555147  0.43759645     0.44100
H306        H  0.77466232  0.26127841  0.39676369     0.40500
H307        H  0.79624926  0.16268784  0.10063826     0.45400
H308        H  0.74451591  0.28944542  0.05187969     0.44200
H309        H  0.77915133  0.23403846  0.37441492     0.44300
H310        H  0.86343456  0.14073891  0.46586253     0.44700
O311        O  0.31910072  0.79059554  0.98831379    -0.74200
O312        O  0.33635470  0.85216275  0.99514720    -0.53100
C313        C  0.34245799  0.82269317  0.48693733     0.79500
O314        O  0.15442453  0.73548326  0.41500067    -0.58800
O315        O  0.11897934  0.69510376  0.45265854    -0.51800
C316        C  0.12669884  0.70422382  0.42449147     0.71500
O317        O  0.26748829  0.84250948  0.41539634    -0.73400
O318        O  0.30722643  0.88027388  0.45249288    -0.53900
C319        C  0.29866791  0.87075134  0.42454674     0.77500
O320        O  0.21160892  0.68202125  0.99794701    -0.58500
O321        O  0.14724062  0.66371914  0.49740180    -0.51600
C322        C  0.17318508  0.65533836  0.49339680     0.74100
Zr323      Zr  0.25225985  0.74958355  0.99530196     2.54700
O324        O  0.26605962  0.72045149  0.44894141    -0.79100
O325        O  0.28260359  0.73266716  0.03462957    -0.92500
Zr326      Zr  0.20847156  0.79154874  0.43596018     2.64700
O327        O  0.22673306  0.77326058  0.38906137    -0.97500
O328        O  0.18154089  0.82271665  0.40709253    -0.79500
O329        O  0.26144956  0.79994999  0.46354185    -0.82900
O330        O  0.19846245  0.73781114  0.46377871    -2.17600
O331        O  0.16209720  0.73205728  0.08264800    -0.66300
O332        O  0.12341189  0.69315567  0.04572768    -0.50800
C333        C  0.13334265  0.70146731  0.07372994     0.72500
O334        O  0.21714813  0.89646220  0.50928936    -0.59200
O335        O  0.27734471  0.90805285  0.50492589    -0.51100
C336        C  0.25137440  0.91969069  0.00348842     0.74300
O337        O  0.10484228  0.78523625  0.50733498    -0.70600
O338        O  0.09180189  0.72430187  0.50502983    -0.49200
C339        C  0.08118345  0.74917961  0.00227089     0.75700
O340        O  0.26907665  0.83937878  0.08275789    -0.65900
O341        O  0.30799156  0.87849316  0.04619426    -0.53100
C342        C  0.29949380  0.86844769  0.07419122     0.74100
Zr343      Zr  0.21387153  0.78765910  0.06077399     2.77500
O344        O  0.18989357  0.81350587  0.09880402    -0.96600
O345        O  0.23675893  0.76116788  0.09886405    -0.77500
Zr346      Zr  0.17415577  0.82761678  0.50517334     2.70100
O347        O  0.15009703  0.85149437  0.04031994    -0.78700
O348        O  0.15266121  0.85350108  0.46550652    -0.97800
Zr349      Zr  0.27641090  0.84915039  0.49902310     2.21500
Zr350      Zr  0.15023071  0.72458760  0.49990195     2.11100
O351        O  0.16160369  0.77617896  0.03085102    -2.46500
O352        O  0.22518274  0.83981112  0.03058308    -0.78500
O353        O  0.20223116  0.73655388  0.02888676    -0.70700
O354        O  0.22379967  0.84166811  0.47022779    -2.31700
O355        O  0.26530854  0.79946133  0.02908945    -2.27900
O356        O  0.15887455  0.77734829  0.47065722    -0.72500
H357        H  0.19161545  0.71683717  0.45024219     0.79500
H358        H  0.23017166  0.86427047  0.45898220     0.80600
H359        H  0.14037710  0.76947934  0.04400056     0.82800
H360        H  0.28733793  0.80507796  0.04119518     0.80500
H361        H  0.19662155  0.83108455  0.38818734     0.41700
H362        H  0.13178263  0.83129202  0.45547859     0.42500
H363        H  0.15103508  0.83819985  0.05873619     0.42100
H364        H  0.19678049  0.80716647  0.11857135     0.40100
H365        H  0.23307749  0.77063697  0.11853508     0.43200
H366        H  0.27777048  0.70735511  0.02882899     0.38000
H367        H  0.26545093  0.73507202  0.43131784     0.44100
H368        H  0.22157683  0.74736221  0.39278649     0.40500
H369        H  0.20614596  0.84110909  0.09710909     0.45400
H370        H  0.26704684  0.72845315  0.05299397     0.44200
H371        H  0.20784484  0.77044392  0.37379959     0.44300
H372        H  0.14039655  0.86539909  0.47663378     0.44700
O373        O  0.56000007  0.82957818  0.41378211    -0.74200
O374        O  0.56702206  0.87319927  0.44912369    -0.53100
C375        C  0.56008367  0.85971784  0.42191170     0.79500
O376        O  0.46981565  0.68043475  0.00309581    -0.58800
O377        O  0.51557815  0.66348311  0.50384367    -0.51800
C378        C  0.48149549  0.65581619  0.50833160     0.71500
O379        O  0.47065598  0.78908604  0.98885683    -0.73400
O380        O  0.51537528  0.85085584  0.99417432    -0.53900
C381        C  0.47983808  0.82118439  0.48975543     0.77500
O382        O  0.57140885  0.72716257  0.41654911    -0.58500
O383        O  0.57187214  0.69006391  0.45470630    -0.51600
C384        C  0.57034677  0.69723702  0.42647353     0.74100
Zr385      Zr  0.57505971  0.78440043  0.43587305     2.54700
O386        O  0.53651938  0.75973254  0.39044575    -0.79100
O387        O  0.63076143  0.81804903  0.40420016    -0.92500
Zr388      Zr  0.49613863  0.74763223  0.99576612     2.64700
O389        O  0.44663150  0.71468961  0.46273175    -0.97500
O390        O  0.44393755  0.72799583  0.03096531    -0.79500
O391        O  0.53466573  0.79597393  0.46649801    -0.82900
O392        O  0.53453336  0.73357982  0.46787911    -2.17600
O393        O  0.68139373  0.78481395  0.50261716    -0.66300
O394        O  0.63322498  0.72391906  0.50341225    -0.50800
C395        C  0.66766050  0.74910749  0.00583779     0.72500
O396        O  0.56783966  0.84025564  0.08282221    -0.59200
O397        O  0.56939172  0.87900671  0.04529132    -0.51100
C398        C  0.56702939  0.86936850  0.07343838     0.74300
O399        O  0.56386661  0.73046013  0.08456442    -0.70600
O400        O  0.56706764  0.69204655  0.04900057    -0.49200
C401        C  0.56319153  0.70008634  0.07664050     0.75700
O402        O  0.68023700  0.89602990  0.49685749    -0.65900
O403        O  0.63149806  0.90771971  0.49499262    -0.53100
C404        C  0.66790353  0.91917814  0.99861314     0.74100
Zr405      Zr  0.65449182  0.82692211  0.49860869     2.77500
O406        O  0.69548375  0.84987613  0.04692363    -0.96600
O407        O  0.69945275  0.84719048  0.45692429    -0.77500
Zr408      Zr  0.57115240  0.78746172  0.06227262     2.70100
O409        O  0.62313104  0.81290584  0.09807787    -0.78700
O410        O  0.52321832  0.76710026  0.10167320    -0.97800
Zr411      Zr  0.57338426  0.84851090  0.49761619     2.21500
Zr412      Zr  0.57453211  0.72363333  0.50080664     2.11100
O413        O  0.61256445  0.77545874  0.03356758    -2.46500
O414        O  0.61292125  0.83962426  0.03237633    -0.78500
O415        O  0.61525346  0.77370132  0.46760206    -0.70700
O416        O  0.53224564  0.79825171  0.02921811    -2.31700
O417        O  0.61437246  0.83744934  0.46607864    -2.27900
O418        O  0.53262085  0.73574937  0.03055392    -0.72500
H419        H  0.51864149  0.71132841  0.45604960     0.79500
H420        H  0.51573249  0.80396016  0.04072343     0.80600
H421        H  0.62664041  0.76877509  0.04721058     0.82800
H422        H  0.62900040  0.85868503  0.45293752     0.80500
H423        H  0.45056565  0.71751389  0.04857015     0.43500
H424        H  0.50332733  0.74183215  0.09509312     0.42500
H425        H  0.61158755  0.80088043  0.11769712     0.42100
H426        H  0.69212072  0.82685958  0.05695274     0.40100
H427        H  0.69514004  0.82359087  0.44724841     0.43200
H428        H  0.62093268  0.81891657  0.38387215     0.38000
H429        H  0.51196680  0.73958712  0.39805836     0.44100
H430        H  0.45024903  0.69437375  0.45434487     0.40500
H431        H  0.72112663  0.86188935  0.03827613     0.45400
H432        H  0.64038822  0.80045261  0.40178329     0.44200
H433        H  0.42336492  0.70152283  0.47497568     0.44300
H434        H  0.53447610  0.76251539  0.11985379     0.44700
O435        O  0.21050050  0.53017981  0.00286896    -0.74200
O436        O  0.14875793  0.48454292  0.99997731    -0.53100
C437        C  0.17403284  0.51766815  0.49445425     0.79500
O438        O  0.26808223  0.42679968  0.41602433    -0.58800
O439        O  0.30617441  0.42739167  0.45377916    -0.51800
C440        C  0.29821350  0.42818743  0.42554187     0.71500
O441        O  0.16338129  0.43322823  0.41526997    -0.73400
O442        O  0.12309420  0.43120869  0.45180746    -0.53900
C443        C  0.13443251  0.43486140  0.42408609     0.77500
O444        O  0.31856173  0.52870809  0.00488400    -0.58500
O445        O  0.33425980  0.48471285  0.50421915    -0.51600
C446        C  0.34183366  0.51880138  0.50882921     0.74100
Zr447      Zr  0.25124893  0.50333914  0.00064768     2.54700
O448        O  0.27980351  0.54970286  0.46130784    -0.79100
O449        O  0.27460885  0.55351037  0.03841570    -0.92500
Zr450      Zr  0.21250474  0.42428571  0.43714374     2.64700
O451        O  0.23495374  0.46976306  0.39582444    -0.97500
O452        O  0.18330452  0.37070693  0.40271393    -0.79500
O453        O  0.20052686  0.46395607  0.46832043    -0.82900
O454        O  0.26370268  0.46513749  0.46877200    -2.17600
O455        O  0.26889331  0.43341261  0.08390630    -0.66300
O456        O  0.30680873  0.43046302  0.04770951    -0.50800
C457        C  0.29922605  0.43440284  0.07541316     0.72500
O458        O  0.10289735  0.31730137  0.49779048    -0.59200
O459        O  0.08994703  0.36522467  0.49501088    -0.51100
C460        C  0.08039676  0.33180320  0.99651181     0.74300
O461        O  0.21453279  0.31801340  0.50326082    -0.70600
O462        O  0.27500524  0.36694264  0.50454209    -0.49200
C463        C  0.25059119  0.33177657  0.00249913     0.75700
O464        O  0.15825772  0.42813177  0.08456678    -0.65900
O465        O  0.12072851  0.42906958  0.04696739    -0.53100
C466        C  0.13009772  0.43064515  0.07506775     0.74100
Zr467      Zr  0.20989979  0.42284514  0.06326395     2.77500
O468        O  0.18341436  0.36827294  0.09658529    -0.96600
O469        O  0.22984392  0.46412242  0.10742380    -0.77500
Zr470      Zr  0.17186316  0.34420220  0.49951759     2.70100
O471        O  0.14683075  0.29699957  0.03889660    -0.78700
O472        O  0.15200712  0.29959867  0.45751509    -0.97800
Zr473      Zr  0.14854615  0.42420711  0.49940723     2.21500
Zr474      Zr  0.27458416  0.42537552  0.50127336     2.11100
O475        O  0.22284249  0.38380002  0.03204363    -2.46500
O476        O  0.15860964  0.38352345  0.03149086    -0.78500
O477        O  0.26203265  0.46378175  0.03277980    -0.70700
O478        O  0.16024075  0.38399464  0.46747095    -2.31700
O479        O  0.20017850  0.46431048  0.03258362    -2.27900
O480        O  0.22432751  0.38444158  0.46840271    -0.72500
H481        H  0.28564352  0.48109376  0.45673350     0.79500
H482        H  0.13914120  0.36913742  0.45427625     0.80600
H483        H  0.22931904  0.36883781  0.04478153     0.82800
H484        H  0.19449467  0.48005462  0.04526731     0.80500
H485        H  0.20012770  0.37844840  0.38480088     0.43500
H486        H  0.17282954  0.31126113  0.44264415     0.42500
H487        H  0.14053418  0.30877620  0.05582710     0.42100
H488        H  0.20518211  0.36600539  0.10311824     0.40100
H489        H  0.24199550  0.48976045  0.09873270     0.43200
H490        H  0.29887702  0.57361849  0.03034101     0.38000
H491        H  0.26351140  0.53818814  0.44333702     0.44100
H492        H  0.26033656  0.48950942  0.40221632     0.40500
H493        H  0.17579943  0.37653567  0.11508724     0.45400
H494        H  0.28142882  0.54330584  0.05610258     0.44200
H495        H  0.23930938  0.45693036  0.37855778     0.44300
H496        H  0.15333461  0.27787056  0.46564992     0.44700
O497        O  0.42818933  0.16015057  0.41523913    -0.74200
O498        O  0.42930023  0.12233907  0.45249907    -0.53100
C499        C  0.43139288  0.13230017  0.42453871     0.79500
O500        O  0.52902310  0.32115966  0.49182175    -0.58800
O501        O  0.48284059  0.33606674  0.49707742    -0.51800
C502        C  0.51741978  0.34481646  0.49402817     0.71500
O503        O  0.52876001  0.20984440  0.99102273    -0.73400
O504        O  0.48410278  0.14828082  0.99745866    -0.53900
C505        C  0.51952734  0.17810234  0.48948469     0.77500
O506        O  0.41902696  0.26326800  0.41436808    -0.58500
O507        O  0.42223371  0.30403323  0.45087123    -0.51600
C508        C  0.42162624  0.29438609  0.42290383     0.74100
Zr509      Zr  0.41629232  0.20783553  0.43610492     2.54700
O510        O  0.44913504  0.22476171  0.38751221    -0.79100
O511        O  0.35714020  0.17269136  0.40893208    -0.92500
Zr512      Zr  0.50317462  0.25141614  0.99603480     2.64700
O513        O  0.54413755  0.27816984  0.44842677    -0.97500
O514        O  0.55408845  0.27032163  0.03236560    -0.79500
O515        O  0.46109392  0.20027506  0.46402413    -0.82900
O516        O  0.46009306  0.26226653  0.46330930    -2.17600
O517        O  0.31842468  0.21469551  0.50642874    -0.66300
O518        O  0.36624328  0.27562572  0.50335193    -0.50800
C519        C  0.33258061  0.25163936  0.00317287     0.72500
O520        O  0.43205691  0.16345076  0.08432243    -0.59200
O521        O  0.43024822  0.12330301  0.04780194    -0.51100
C522        C  0.43292883  0.13409573  0.07567327     0.74300
O523        O  0.43525952  0.27281435  0.08153227    -0.70600
O524        O  0.43461293  0.31086842  0.04424031    -0.49200
C525        C  0.43749626  0.30339056  0.07211314     0.75700
O526        O  0.32100810  0.10355185  0.50957564    -0.65900
O527        O  0.36967846  0.09201284  0.50544533    -0.53100
C528        C  0.33231921  0.08089640  0.00639385     0.74100
Zr529      Zr  0.34524280  0.17217588  0.50471617     2.77500
O530        O  0.29805220  0.14906298  0.04136695    -0.96600
O531        O  0.29567339  0.14471634  0.46670507    -0.77500
Zr532      Zr  0.42680596  0.21407255  0.06179987     2.70100
O533        O  0.37351798  0.18947656  0.09644534    -0.78700
O534        O  0.47103109  0.23402879  0.10388883    -0.97800
Zr535      Zr  0.42677521  0.15153472  0.49965100     2.21500
Zr536      Zr  0.42437380  0.27558594  0.49861797     2.11100
O537        O  0.38613586  0.22530837  0.03162252    -2.46500
O538        O  0.38590581  0.16137498  0.03210384    -0.78500
O539        O  0.38019157  0.22205262  0.46982772    -0.70700
O540        O  0.46631622  0.20212501  0.03011062    -2.31700
O541        O  0.38132033  0.15794562  0.47034684    -2.27900
O542        O  0.46622120  0.26451163  0.02947112    -0.72500
H543        H  0.47429581  0.28306043  0.44966852     0.79500
H544        H  0.48273631  0.19692132  0.04219374     0.80600
H545        H  0.37193073  0.23253231  0.04470525     0.82800
H546        H  0.36534315  0.13513541  0.45914053     0.80500
H547        H  0.54561871  0.27806199  0.05067537     0.43500
H548        H  0.49136927  0.25945436  0.09818205     0.42500
H549        H  0.36529202  0.16246156  0.09848130     0.42100
H550        H  0.30888927  0.16839219  0.05754663     0.40100
H551        H  0.27243875  0.12943254  0.47859439     0.43200
H552        H  0.36433705  0.17635754  0.38718009     0.38000
H553        H  0.47597239  0.24029522  0.39302785     0.44100
H554        H  0.56862176  0.28199967  0.45550386     0.40500
H555        H  0.27686752  0.15125178  0.03315648     0.45400
H556        H  0.34428383  0.18730436  0.41210751     0.44200
H557        H  0.53470936  0.25665296  0.43417658     0.44300
H558        H  0.45797475  0.23818420  0.12108874     0.44700
C559        C  0.29823456  0.31830473  0.02459005     0.24700
C560        C  0.26621639  0.30617883  0.00620530    -0.23400
C561        C  0.25217330  0.27197122  0.49325391     0.19600
C562        C  0.27196738  0.25214707  0.49349418     0.24600
C563        C  0.30676204  0.26702031  0.00652513    -0.23400
C564        C  0.31831837  0.29929801  0.02453770     0.19500
F565        F  0.34969788  0.31297843  0.04196111    -0.13300
F566        F  0.31062220  0.34927016  0.04248152    -0.15700
F567        F  0.25991491  0.22124111  0.47566934    -0.15700
F568        F  0.22126849  0.25938794  0.47546704    -0.13300
C569        C  0.44365876  0.58858125  0.49120613     0.24700
C570        C  0.45127242  0.61651193  0.51304893    -0.23400
C571        C  0.42564129  0.60699396  0.03152811     0.19600
C572        C  0.39176072  0.57298738  0.03155678     0.24600
C573        C  0.38135819  0.54895639  0.51293897    -0.23400
C574        C  0.40884574  0.55501598  0.49111319     0.19500
F575        F  0.40054411  0.53040174  0.46784812    -0.13300
F576        F  0.46820755  0.59530134  0.46822746    -0.15700
F577        F  0.36701205  0.56555405  0.05461756    -0.15700
F578        F  0.43310741  0.63162560  0.05471150    -0.13300
C579        C  0.31334562  0.01910366  0.03070785     0.24700
C580        C  0.30573991  0.03997263  0.00949518    -0.23400
C581        C  0.27393995  0.02005142  0.49964404     0.19600
C582        C  0.25416890  0.98035110  0.49910784     0.24600
C583        C  0.26589276  0.96046835  0.00764804    -0.23400
C584        C  0.29352144  0.97984306  0.02987074     0.19500
F585        F  0.30223758  0.96056135  0.05019102    -0.13300
F586        F  0.34092323  0.03681825  0.05171513    -0.15700
F587        F  0.22182104  0.96198783  0.48295684    -0.15700
F588        F  0.25955444  0.03888454  0.48479531    -0.13300
C589        C  0.18119876  0.60890902  0.02690468     0.24700
C590        C  0.16329165  0.61558505  0.49031120    -0.23400
C591        C  0.17861201  0.60577383  0.46578768     0.19600
C592        C  0.17894178  0.57200584  0.46597108     0.24600
C593        C  0.16419300  0.54740590  0.49081659    -0.23400
C594        C  0.17997784  0.57446265  0.02833627     0.19500
F595        F  0.19467814  0.56662019  0.05297150    -0.13300
F596        F  0.19830289  0.63426343  0.04965400    -0.15700
F597        F  0.19577329  0.56434663  0.44266693    -0.15700
F598        F  0.19545949  0.63018097  0.44245554    -0.13300
C599        C  0.38913364  0.81080510  0.46086126     0.24700
C600        C  0.38164366  0.83124284  0.48271073    -0.23400
C601        C  0.41137565  0.85607803  0.00704125     0.19600
C602        C  0.44534280  0.85564503  0.00690957     0.24600
C603        C  0.44953060  0.82989471  0.48439363    -0.23400
C604        C  0.42243597  0.80972024  0.46194987     0.19500
F605        F  0.42725713  0.78713329  0.44208703    -0.13300
F606        F  0.36295953  0.78971805  0.43964693    -0.15700
F607        F  0.47081578  0.87388822  0.02922487    -0.15700
F608        F  0.40478376  0.87460560  0.02960348    -0.13300
C609        C  0.72644344  0.98091028  0.01281508     0.24700
C610        C  0.69369636  0.96043532  0.99519987    -0.23400
C611        C  0.68226142  0.97995758  0.47220161     0.19600
C612        C  0.70104236  0.01919331  0.47275654     0.24600
C613        C  0.73303990  0.04026389  0.99474030    -0.23400
C614        C  0.74617291  0.02063751  0.01240682     0.19500
F615        F  0.77637248  0.03976505  0.03083179    -0.13300
F616        F  0.73777532  0.96269967  0.03194434    -0.15700
F617        F  0.68917380  0.03715422  0.45380811    -0.15700
F618        F  0.65321357  0.96144833  0.45257458    -0.13300
C619        C  0.98000997  0.25347239  0.01183442     0.24700
C620        C  0.95977681  0.26563281  0.99390491    -0.23400
C621        C  0.97971648  0.29577402  0.97375762     0.19600
C622        C  0.01885723  0.31575191  0.97365500     0.24600
C623        C  0.03934788  0.30567876  0.99322969    -0.23400
C624        C  0.01964104  0.27324372  0.01129789     0.19500
F625        F  0.03862793  0.26236493  0.02998687    -0.13300
F626        F  0.96166124  0.22430584  0.03136836    -0.15700
F627        F  0.03800919  0.33725507  0.44767128    -0.15700
F628        F  0.96186116  0.29978319  0.44757078    -0.13300
C629        C  0.61126251  0.18825830  0.46413081     0.24700
C630        C  0.61861249  0.16956877  0.48744315    -0.23400
C631        C  0.58996068  0.14774543  0.50837069     0.19600
C632        C  0.55565313  0.14743060  0.50744998     0.24600
C633        C  0.55006679  0.16941875  0.48592840    -0.23400
C634        C  0.57760384  0.18856980  0.46356003     0.19500
F635        F  0.57274809  0.20936475  0.44201007    -0.13300
F636        F  0.63767520  0.20789922  0.44265804    -0.15700
F637        F  0.53382671  0.13336780  0.03716401    -0.15700
F638        F  0.60106119  0.13516000  0.03729301    -0.13300
C639        C  0.98045940  0.68294949  0.02518448     0.24700
C640        C  0.96014142  0.69476231  0.00705267    -0.23400
C641        C  0.98119066  0.72713988  0.49249725     0.19600
C642        C  0.02089706  0.74676917  0.49268266     0.24600
C643        C  0.03998164  0.73372237  0.00597697    -0.23400
C644        C  0.01959065  0.70169165  0.02428177     0.19500
F645        F  0.03763312  0.68783393  0.04100802    -0.13300
F646        F  0.96224589  0.65229969  0.04338216    -0.15700
F647        F  0.03993915  0.77652687  0.47379764    -0.15700
F648        F  0.96293403  0.73931474  0.47426053    -0.13300
C649        C  0.72854879  0.74826491  0.49244759     0.24700
C650        C  0.69353597  0.73380828  0.00937501    -0.23400
C651        C  0.68152009  0.70125694  0.02705103     0.19600
C652        C  0.70034489  0.68102171  0.02590717     0.24600
C653        C  0.73254676  0.69317605  0.00769904    -0.23400
C654        C  0.74853320  0.72863369  0.49252642     0.19500
F655        F  0.78017224  0.74163745  0.47551967    -0.13300
F656        F  0.74133501  0.77972384  0.47528442    -0.15700
F657        F  0.68634811  0.64874602  0.04225142    -0.15700
F658        F  0.65071708  0.68837554  0.04513184    -0.13300
C659        C  0.82690455  0.39703688  0.02883543     0.24700
C660        C  0.83724402  0.38534209  0.50256451    -0.23400
C661        C  0.84886987  0.40809676  0.47644980     0.19600
C662        C  0.84765658  0.44159835  0.47580303     0.24600
C663        C  0.83425180  0.45223142  0.50110895    -0.23400
C664        C  0.82635438  0.43069921  0.02902836     0.19500
F665        F  0.81368696  0.44019094  0.05414462    -0.13300
F666        F  0.81560392  0.37500878  0.05402147    -0.15700
F667        F  0.85639493  0.46184530  0.44970248    -0.15700
F668        F  0.85782710  0.39609225  0.45070928    -0.13300
C669        C  0.60554843  0.42700902  0.03258938     0.24700
C670        C  0.61618955  0.45250172  0.49388685    -0.23400
C671        C  0.60356914  0.43139491  0.46697637     0.19600
C672        C  0.56913999  0.39787259  0.46630589     0.24600
C673        C  0.54694630  0.38467729  0.49263486    -0.23400
C674        C  0.57158261  0.39299624  0.03161364     0.19500
F675        F  0.56174859  0.36905431  0.05554538    -0.13300
F676        F  0.62792065  0.43541135  0.05744376    -0.15700
F677        F  0.55855412  0.37689104  0.44048237    -0.15700
F678        F  0.62584807  0.44204849  0.44190307    -0.13300
C679        C  0.43551449  0.34549804  0.14758456     0.24700
C680        C  0.46223144  0.38367749  0.14328923    -0.23400
C681        C  0.47913049  0.39563820  0.11445955     0.19600
C682        C  0.47032688  0.36976872  0.09079131     0.24600
C683        C  0.44429771  0.33159875  0.09553545    -0.23400
C684        C  0.42678967  0.31977479  0.12399990     0.19500
F685        F  0.40094363  0.28310885  0.12895440    -0.13300
F686        F  0.41715372  0.33298776  0.17445185    -0.15700
F687        F  0.48859938  0.38173132  0.06379562    -0.15700
F688        F  0.50509793  0.43213480  0.10939726    -0.13300
C689        C  0.45152539  0.38637504  0.38220924     0.24700
C690        C  0.45023154  0.37578930  0.35142591    -0.23400
C691        C  0.43542319  0.33748362  0.34453350     0.19600
C692        C  0.42397319  0.31086708  0.36767273     0.24600
C693        C  0.42715406  0.32167162  0.39852066    -0.23400
C694        C  0.44007202  0.35968459  0.40539280     0.19500
F695        F  0.44323215  0.37164258  0.43462189    -0.13300
F696        F  0.46471663  0.42277609  0.39027381    -0.15700
F697        F  0.41065000  0.27446563  0.35956990    -0.15700
F698        F  0.43258244  0.32542738  0.31536451    -0.13300
C699        C  0.68185162  0.57359436  0.12873707     0.24700
C700        C  0.67073722  0.55897208  0.09921090    -0.23400
C701        C  0.63241225  0.53449821  0.09330353     0.19600
C702        C  0.60600428  0.52378800  0.11674626     0.24600
C703        C  0.61721061  0.53787317  0.14647377    -0.23400
C704        C  0.65542040  0.56339379  0.15203289     0.19500
F705        F  0.66733477  0.57903454  0.17994863    -0.13300
F706        F  0.71847134  0.59807268  0.13508633    -0.15700
F707        F  0.56961992  0.49857333  0.11047410    -0.15700
F708        F  0.62058955  0.51945752  0.06518844    -0.13300
C709        C  0.60595989  0.52470021  0.38437947     0.24700
C710        C  0.61633712  0.53865821  0.35451167    -0.23400
C711        C  0.65408057  0.56586520  0.34878021     0.19600
C712        C  0.68094245  0.57759520  0.37187033     0.24600
C713        C  0.67076805  0.56293329  0.40145164    -0.23400
C714        C  0.63283985  0.53683047  0.40756830     0.19500
F715        F  0.62195452  0.52150042  0.43567572    -0.13300
F716        F  0.56999146  0.49841959  0.39112688    -0.15700
F717        F  0.71705398  0.60351654  0.36522106    -0.15700
F718        F  0.66513910  0.58172159  0.32086074    -0.13300
C719        C  0.54487126  0.65544086  0.15516232     0.24700
C720        C  0.53912518  0.61940882  0.14869112    -0.23400
C721        C  0.54389611  0.61097879  0.11842660     0.19600
C722        C  0.55207028  0.63705597  0.09508305     0.24600
C723        C  0.55669747  0.67272609  0.10141793    -0.23400
C724        C  0.55369234  0.68169454  0.13200413     0.19500
F725        F  0.55877832  0.71587561  0.13990053    -0.13300
F726        F  0.54138020  0.66547091  0.18391129    -0.15700
F727        F  0.55482684  0.62687018  0.06623136    -0.15700
F728        F  0.54086611  0.57745369  0.11118800    -0.13300
C729        C  0.54602852  0.63022708  0.41039500     0.24700
C730        C  0.56547070  0.66881247  0.40344638    -0.23400
C731        C  0.57735261  0.67999028  0.37335503     0.19600
C732        C  0.56800091  0.65336131  0.35037069     0.24600
C733        C  0.54594702  0.61468179  0.35672184    -0.23400
C734        C  0.53637504  0.60340476  0.38731996     0.19500
F735        F  0.51643501  0.56648514  0.39498612    -0.13300
F736        F  0.53449709  0.61827990  0.43923281    -0.15700
F737        F  0.58043542  0.66578796  0.32177591    -0.15700
F738        F  0.59769205  0.71696202  0.36593992    -0.13300
C739        C  0.34244673  0.44633295  0.15356735     0.24700
C740        C  0.38085390  0.46172570  0.14675693    -0.23400
C741        C  0.39178165  0.46555967  0.11588338     0.19600
C742        C  0.36521573  0.45518448  0.09262881     0.24600
C743        C  0.32715230  0.44145332  0.09958851    -0.23400
C744        C  0.31612858  0.43661132  0.13039628     0.19500
F745        F  0.27960803  0.42238662  0.13842413    -0.13300
F746        F  0.32987205  0.44061213  0.18272978    -0.15700
F747        F  0.37716848  0.45978097  0.06332593    -0.15700
F748        F  0.42832681  0.47998772  0.10790824    -0.13300
C749        C  0.31468857  0.42181441  0.37172259     0.24700
C750        C  0.32612048  0.43305963  0.40197388    -0.23400
C751        C  0.36467537  0.45238381  0.40865228     0.19600
C752        C  0.39123955  0.46231783  0.38542911     0.24600
C753        C  0.37987511  0.45323343  0.35479071    -0.23400
C754        C  0.34115734  0.43171390  0.34846595     0.19500
F755        F  0.32858668  0.42007019  0.31973763    -0.13300
F756        F  0.27770382  0.40129474  0.36447621    -0.15700
F757        F  0.42811722  0.48182585  0.39311732    -0.15700
F758        F  0.37690868  0.46331717  0.43752905    -0.13300
C759        C  0.89450248  0.58024583  0.12856127     0.24700
C760        C  0.89211383  0.56632059  0.09889854    -0.23400
C761        C  0.90753581  0.54327388  0.09280369     0.19600
C762        C  0.92389340  0.53333992  0.11609030     0.24600
C763        C  0.92473327  0.54577804  0.14615136    -0.23400
C764        C  0.91053841  0.57006080  0.15194395     0.19500
F765        F  0.91207678  0.58409280  0.18021798    -0.13300
F766        F  0.88080634  0.60341428  0.13507497    -0.15700
F767        F  0.93731597  0.51003292  0.10930094    -0.15700
F768        F  0.90461096  0.52820093  0.06473430    -0.13300
C769        C  0.90369922  0.56314586  0.34566457     0.24700
C770        C  0.92500744  0.54606037  0.35318977    -0.23400
C771        C  0.93027968  0.54128158  0.38421006     0.19600
C772        C  0.91311091  0.55138978  0.40685415     0.24600
C773        C  0.89057223  0.56696444  0.39918763    -0.23400
C774        C  0.88688370  0.57353463  0.36830088     0.19500
F775        F  0.86644246  0.58956097  0.35969795    -0.13300
F776        F  0.89843467  0.56953450  0.31628584    -0.15700
F777        F  0.91724008  0.54415495  0.43626590    -0.15700
F778        F  0.95129163  0.52594596  0.39291745    -0.13300
C779        C  0.93695871  0.38701762  0.11947556     0.24700
C780        C  0.91711046  0.38626645  0.14578129    -0.23400
C781        C  0.87927754  0.35851166  0.14875996     0.19600
C782        C  0.86132704  0.33219644  0.12572072     0.24600
C783        C  0.88106863  0.33249149  0.09928417    -0.23400
C784        C  0.91912313  0.36039641  0.09641595     0.19500
F785        F  0.93951019  0.36132492  0.07180539    -0.13300
F786        F  0.97409746  0.41250943  0.11667931    -0.15700
F787        F  0.82432956  0.30672943  0.12935126    -0.15700
F788        F  0.85937201  0.35710719  0.17389834    -0.13300
C789        C  0.90826099  0.34454027  0.34619236     0.24700
C790        C  0.92502595  0.38313326  0.35296236    -0.23400
C791        C  0.92760432  0.39425470  0.38367445     0.19600
C792        C  0.91179808  0.36739953  0.40669064     0.24600
C793        C  0.89317012  0.32883345  0.39959380    -0.23400
C794        C  0.89236806  0.31777954  0.36917810     0.19500
F795        F  0.87576953  0.28086656  0.36148397    -0.13300
F796        F  0.90742038  0.33239518  0.31731069    -0.15700
F797        F  0.91316003  0.37933395  0.43572239    -0.15700
F798        F  0.94460953  0.43111955  0.39161207    -0.13300
C799        C  0.09536300  0.46294121  0.09195253     0.24700
C800        C  0.10877978  0.43826346  0.09829849    -0.23400
C801        C  0.10530853  0.42429311  0.12800341     0.19600
C802        C  0.08968409  0.43550702  0.15107690     0.24600
C803        C  0.07752927  0.46134972  0.14511619    -0.23400
C804        C  0.07985897  0.47434581  0.11507922     0.19500
F805        F  0.06816580  0.49897418  0.10810908    -0.13300
F806        F  0.09902591  0.47765015  0.06368727    -0.15700
F807        F  0.08577292  0.42031845  0.17915055    -0.15700
F808        F  0.11698125  0.39958230  0.13476536    -0.13300
C809        C  0.09560073  0.43979145  0.34736572     0.24700
C810        C  0.07996305  0.46280082  0.35353853    -0.23400
C811        C  0.08113639  0.47515523  0.38375730     0.19600
C812        C  0.09763137  0.46499766  0.40691530     0.24600
C813        C  0.11363954  0.44255191  0.40044785    -0.23400
C814        C  0.11208470  0.42977571  0.37052087     0.19500
F815        F  0.12633577  0.40718076  0.36362798    -0.13300
F816        F  0.09496759  0.42665358  0.31889453    -0.15700
F817        F  0.09937185  0.47855297  0.43543081    -0.15700
F818        F  0.06745836  0.49814206  0.39093032    -0.13300
C819        C  0.09164088  0.63503566  0.09116702     0.24700
C820        C  0.11178332  0.67367525  0.09777126    -0.23400
C821        C  0.11471130  0.68534604  0.12831989     0.19600
C822        C  0.09929063  0.65907146  0.15174044     0.24600
C823        C  0.08012103  0.62025438  0.14533239    -0.23400
C824        C  0.07612257  0.60864530  0.11460514     0.19500
F825        F  0.05815547  0.57166084  0.10700725    -0.13300
F826        F  0.08839600  0.62251321  0.06211030    -0.15700
F827        F  0.10339611  0.67200625  0.18073125    -0.15700
F828        F  0.13289578  0.72241446  0.13576885    -0.13300
C829        C  0.09004267  0.63734571  0.40714244     0.24700
C830        C  0.10420268  0.67572658  0.40112478    -0.23400
C831        C  0.10102057  0.68666110  0.37147756     0.19600
C832        C  0.08530594  0.66001581  0.34813259     0.24600
C833        C  0.07295567  0.62181607  0.35376847    -0.23400
C834        C  0.07492639  0.61079640  0.38376388     0.19500
F835        F  0.06402138  0.57451081  0.39041115    -0.13300
F836        F  0.09317388  0.62560398  0.43526548    -0.15700
F837        F  0.08248698  0.67183673  0.31997112    -0.15700
F838        F  0.11374444  0.72335169  0.36489911    -0.13300
C839        C  0.36409686  0.91707667  0.09189261     0.24700
C840        C  0.32669102  0.89016204  0.09869516    -0.23400
C841        C  0.31614818  0.88169946  0.12956488     0.19600
C842        C  0.34242365  0.89863367  0.15272151     0.24600
C843        C  0.38022611  0.92446651  0.14590735    -0.23400
C844        C  0.39053978  0.93393552  0.11513734     0.19500
F845        F  0.42643082  0.95906836  0.10718835    -0.13300
F846        F  0.37569894  0.92623870  0.06265763    -0.15700
F847        F  0.33054457  0.88879695  0.18185255    -0.15700
F848        F  0.28040917  0.85623500  0.13775322    -0.13300
C849        C  0.39191486  0.92168529  0.38337543     0.24700
C850        C  0.38078398  0.92559150  0.35393068    -0.23400
C851        C  0.34260348  0.91353102  0.34869691     0.19600
C852        C  0.31623546  0.89730831  0.37207605     0.24600
C853        C  0.32723358  0.89244104  0.40113531    -0.23400
C854        C  0.36542527  0.90520251  0.40666716     0.19500
F855        F  0.37692949  0.89969051  0.43412435    -0.13300
F856        F  0.42820643  0.93218280  0.38942586    -0.15700
F857        F  0.27974892  0.88614041  0.36623120    -0.15700
F858        F  0.33054047  0.91733339  0.32092903    -0.13300
C859        C  0.55743419  0.90351146  0.15103700     0.24700
C860        C  0.53718245  0.92187814  0.14443106    -0.23400
C861        C  0.53033210  0.92619542  0.11363671     0.19600
C862        C  0.54250364  0.91160382  0.09029709     0.24600
C863        C  0.56080357  0.89142307  0.09714885    -0.23400
C864        C  0.56901826  0.88853243  0.12778801     0.19500
F865        F  0.58823799  0.87090111  0.13548771    -0.13300
F866        F  0.56628827  0.89988252  0.18008495    -0.15700
F867        F  0.53505435  0.91609275  0.06106693    -0.15700
F868        F  0.51092242  0.94361069  0.10591295    -0.13300
C869        C  0.55536426  0.93719763  0.37822732     0.24700
C870        C  0.53476408  0.91767651  0.35230776    -0.23400
C871        C  0.52194595  0.87910183  0.34972852     0.19600
C872        C  0.52977939  0.86030236  0.37240107     0.24600
C873        C  0.55110747  0.87979547  0.39818637    -0.23400
C874        C  0.56354151  0.91847274  0.40089571     0.19500
F875        F  0.58439377  0.93849596  0.42511716    -0.13300
F876        F  0.56861990  0.97465950  0.38119957    -0.15700
F877        F  0.51556867  0.82271650  0.36930505    -0.15700
F878        F  0.50080046  0.85925462  0.32551363    -0.13300
C879        C  0.60582611  0.07013744  0.11354818     0.24700
C880        C  0.61728462  0.07383513  0.14425438    -0.23400
C881        C  0.65602051  0.09204995  0.15063286     0.19600
C882        C  0.68238468  0.10846725  0.12735969     0.24600
C883        C  0.67088845  0.10738165  0.09706327    -0.23400
C884        C  0.63236423  0.08653022  0.09024400     0.19500
F885        F  0.62010593  0.08318632  0.06115471    -0.13300
F886        F  0.56890856  0.05170696  0.10589190    -0.15700
F887        F  0.71938788  0.12559077  0.13461565    -0.15700
F888        F  0.66876443  0.09439741  0.17946822    -0.13300
C889        C  0.65650695  0.08697776  0.34722213     0.24700
C890        C  0.61879532  0.07659267  0.35245354    -0.23400
C891        C  0.60809522  0.08240752  0.38147020     0.19600
C892        C  0.63475366  0.09939577  0.40444098     0.24600
C893        C  0.67265482  0.11096836  0.39888506    -0.23400
C894        C  0.68317827  0.10399409  0.37024272     0.19500
F895        F  0.71930997  0.11357800  0.36453450    -0.13300
F896        F  0.66760155  0.08047302  0.31987920    -0.15700
F897        F  0.62376262  0.10647701  0.43159613    -0.15700
F898        F  0.57211974  0.07330219  0.38730027    -0.13300
C899        C  0.43236878  0.11704991  0.13044797     0.24700
C900        C  0.43950881  0.11290459  0.09972984    -0.23400
C901        C  0.45632865  0.09134467  0.09275277     0.19600
C902        C  0.46815468  0.07653022  0.11594698     0.24600
C903        C  0.46221642  0.08177074  0.14679835    -0.23400
C904        C  0.44329527  0.10148845  0.15362175     0.19500
F905        F  0.43487788  0.10562368  0.18273949    -0.13300
F906        F  0.41451972  0.13607458  0.13826266    -0.15700
F907        F  0.48592519  0.05751335  0.10792870    -0.15700
F908        F  0.46245887  0.08541921  0.06345333    -0.13300
C909        C  0.47481688  0.08170814  0.38460742     0.24700
C910        C  0.46192736  0.07952565  0.35454515    -0.23400
C911        C  0.43726487  0.09307770  0.34834711     0.19600
C912        C  0.42611339  0.10868766  0.37141152     0.24600
C913        C  0.43961911  0.11159128  0.40120465    -0.23400
C914        C  0.46393920  0.09779826  0.40763671     0.19500
F915        F  0.47886040  0.10172022  0.43584657    -0.13300
F916        F  0.49907423  0.06960413  0.39164444    -0.15700
F917        F  0.40204531  0.12109358  0.36448407    -0.15700
F918        F  0.42355096  0.09110588  0.31992688    -0.13300
O919        O  0.46874238  0.07026278  0.80036124    -0.74200
O920        O  0.48428694  0.03978606  0.83533901    -0.53100
C921        C  0.47153473  0.06145934  0.82796993     0.79500
O922        O  0.39886513  0.93215654  0.69743014    -0.58800
O923        O  0.44533541  0.96292730  0.66272161    -0.51800
C924        C  0.41088393  0.94070728  0.66991182     0.71500
O925        O  0.39846276  0.93269276  0.79989478    -0.73400
O926        O  0.44479442  0.96218610  0.83497541    -0.53900
C927        C  0.41032218  0.94049238  0.82748535     0.77500
O928        O  0.47438532  0.07433444  0.69780569    -0.58500
O929        O  0.48641209  0.04147870  0.66237411    -0.51600
C930        C  0.47597046  0.06492560  0.67009913     0.74100
Zr931      Zr  0.48596200  0.06026294  0.74930775     2.54700
O932        O  0.43907700  0.07960016  0.74672526    -0.79100
O933        O  0.53387627  0.12638912  0.75270491    -0.92500
Zr934      Zr  0.42468700  0.94761414  0.74876540     2.64700
O935        O  0.36631573  0.94909243  0.74976060    -0.97500
O936        O  0.39123227  0.87921094  0.74853488    -0.79500
O937        O  0.45432272  0.00381946  0.77774939    -0.82900
O938        O  0.45432497  0.00405709  0.72043576    -2.17600
O939        O  0.60396572  0.07058266  0.69704262    -0.66300
O940        O  0.55757268  0.04037813  0.66218335    -0.50800
C941        C  0.59199513  0.06248814  0.66943900     0.72500
O942        O  0.53130785  0.92990388  0.79988768    -0.59200
O943        O  0.51743446  0.96118835  0.83553915    -0.51100
C944        C  0.52879898  0.93847552  0.82769018     0.74300
O945        O  0.53062048  0.92927780  0.69663862    -0.70600
O946        O  0.51757640  0.96202897  0.66194125    -0.49200
C947        C  0.52868574  0.93898032  0.66911797     0.75700
O948        O  0.60419250  0.06855964  0.80019374    -0.65900
O949        O  0.55772657  0.03965161  0.83535297    -0.53100
C950        C  0.59221616  0.06109001  0.82777722     0.74100
Zr951      Zr  0.57881048  0.05486306  0.74879856     2.77500
O952        O  0.63814725  0.05525021  0.74962648    -0.96600
O953        O  0.61152228  0.12322824  0.74960483    -0.77500
Zr954      Zr  0.51778664  0.94226211  0.74836130     2.70100
O955        O  0.56714191  0.92615694  0.74881356    -0.78700
O956        O  0.47191211  0.87533502  0.74843178    -0.97800
Zr957      Zr  0.50152204  0.00086231  0.80646127     2.21500
Zr958      Zr  0.50177135  0.00149863  0.69138184     2.11100
O959        O  0.54940864  0.99875638  0.71994892    -2.46500
O960        O  0.54893326  0.99837728  0.77735854    -0.78500
O961        O  0.53296520  0.05891930  0.71908660    -0.70700
O962        O  0.47068478  0.94367336  0.77836628    -2.31700
O963        O  0.53286602  0.05844343  0.77897544    -2.27900
O964        O  0.47060988  0.94384737  0.71864801    -0.72500
H965        H  0.43570826  0.00478844  0.70760681     0.79500
H966        H  0.45925094  0.92218656  0.79178724     0.80600
H967        H  0.56813133  0.99832613  0.70699248     0.82800
H968        H  0.54432775  0.07982863  0.79257137     0.80500
H969        H  0.40262131  0.87220852  0.76522928     0.43500
H970        H  0.46335562  0.86945393  0.72706191     0.42500
H971        H  0.58977382  0.94921085  0.74167970     0.42100
H972        H  0.63715360  0.04001739  0.73181148     0.40100
H973        H  0.63431032  0.13067110  0.76190873     0.43200
H974        H  0.52408383  0.13697128  0.76803688     0.38000
H975        H  0.41524782  0.05674897  0.75222903     0.44100
H976        H  0.36659121  0.96240841  0.73094986     0.40500
H977        H  0.65729965  0.08132612  0.74425339     0.45400
H978        H  0.53212145  0.13732326  0.73317098     0.44200
H979        H  0.34646139  0.92268336  0.74632434     0.44300
H980        H  0.48695068  0.86295635  0.75167171     0.44700
O981        O  0.06471411  0.60128557  0.80096496    -0.74200
O982        O  0.03560257  0.55516757  0.83620797    -0.53100
C983        C  0.05623885  0.58980968  0.82864087     0.79500
O984        O  0.92753761  0.52798794  0.69784425    -0.58800
O985        O  0.95893598  0.51359635  0.66271310    -0.51800
C986        C  0.93624191  0.52508130  0.67011578     0.71500
O987        O  0.93055592  0.53147854  0.80197336    -0.73400
O988        O  0.95992113  0.51474994  0.83700284    -0.53900
C989        C  0.93866234  0.52795930  0.82965201     0.77500
O990        O  0.06914594  0.59982771  0.69815332    -0.58500
O991        O  0.03753013  0.55398479  0.66312862    -0.51600
C992        C  0.06058516  0.58817973  0.67052659     0.74100
Zr993      Zr  0.05444679  0.57470510  0.74972504     2.54700
O994        O  0.06277842  0.63754358  0.74719324    -0.79100
O995        O  0.12217632  0.60108832  0.75072178    -0.92500
Zr996      Zr  0.94215383  0.51794999  0.75002895     2.64700
O997        O  0.93995451  0.57601091  0.75149555    -0.97500
O998        O  0.87398223  0.48071479  0.75216884    -0.79500
O999        O  0.99836061  0.54693654  0.77857255    -0.82900
O1000       O  0.99819520  0.54713240  0.72110296    -2.17600
O1001       O  0.07037748  0.46888506  0.69789218    -0.66300
O1002       O  0.03797525  0.48216623  0.66311637    -0.50800
C1003       C  0.06102639  0.47109087  0.67036257     0.72500
O1004       O  0.93204228  0.39517030  0.80074319    -0.59200
O1005       O  0.96177585  0.44176963  0.83564609    -0.51100
C1006       C  0.94080318  0.40715089  0.82829669     0.74300
O1007       O  0.92903978  0.39577065  0.69774680    -0.70600
O1008       O  0.95983704  0.44253744  0.66322344    -0.49200
C1009       C  0.93781792  0.40804903  0.67026698     0.75700
O1010       O  0.06813680  0.46574329  0.80074368    -0.65900
O1011       O  0.03835684  0.48222362  0.83576917    -0.53100
C1012       C  0.06003981  0.46948044  0.82838120     0.74100
Zr1013     Zr  0.05528740  0.47918539  0.74950120     2.77500
O1014       O  0.06321519  0.42433425  0.74937303    -0.96600
O1015       O  0.12276833  0.52214499  0.74971340    -0.77500
Zr1016     Zr  0.94268082  0.42162979  0.74946910     2.70100
O1017       O  0.93478225  0.35888052  0.74845948    -0.78700
O1018       O  0.87466822  0.39322883  0.74978524    -0.97800
Zr1019     Zr  0.99870955  0.49838088  0.80713392     2.21500
Zr1020     Zr  0.99844003  0.49824575  0.69231447     2.11100
O1021       O  0.99902105  0.44944872  0.72083599    -2.46500
O1022       O  0.99898873  0.44975441  0.77817080    -0.78500
O1023       O  0.05581550  0.52742816  0.71976627    -0.70700
O1024       O  0.94114246  0.46903389  0.77945278    -2.31700
O1025       O  0.05616452  0.52761302  0.77952674    -2.27900
O1026       O  0.94103668  0.46917619  0.72012522    -0.72500
H1027       H  0.99810374  0.56601354  0.70814049     0.79500
H1028       H  0.91976595  0.45812542  0.79301372     0.80600
H1029       H  0.99933589  0.43062564  0.70785329     0.82800
H1030       H  0.07752164  0.53851749  0.79305874     0.80500
H1031       H  0.86679847  0.46538830  0.73336576     0.43500
H1032       H  0.86537326  0.36842857  0.73996024     0.42500
H1033       H  0.96062956  0.36318544  0.74999272     0.42100
H1034       H  0.04693380  0.40816177  0.73271718     0.40100
H1035       H  0.13299943  0.50934136  0.76216678     0.43200
H1036       H  0.12873890  0.60381325  0.77258322     0.38000
H1037       H  0.03799524  0.63408624  0.75297634     0.44100
H1038       H  0.96178927  0.59403038  0.73923382     0.40500
H1039       H  0.08915909  0.43372476  0.74204392     0.45400
H1040       H  0.13248966  0.62717763  0.74338053     0.44200
H1041       H  0.91778327  0.57090998  0.73921009     0.44300
H1042       H  0.86743017  0.38728222  0.77141329     0.44700
O1043       O  0.39887559  0.46953574  0.80266757    -0.74200
O1044       O  0.44397345  0.48214299  0.83781958    -0.53100
C1045       C  0.40987180  0.47060229  0.83021638     0.79500
O1046       O  0.46291187  0.39690399  0.69853973    -0.58800
O1047       O  0.47829977  0.44366662  0.66426828    -0.51800
C1048       C  0.46624807  0.40917068  0.67111527     0.71500
O1049       O  0.46023173  0.39606689  0.80115468    -0.73400
O1050       O  0.47992118  0.44237973  0.83661863    -0.53900
C1051       C  0.46515931  0.40772359  0.82883816     0.77500
O1052       O  0.39889421  0.47487017  0.69985921    -0.58500
O1053       O  0.44365268  0.48644150  0.66450355    -0.51600
C1054       C  0.40992717  0.47662415  0.67214595     0.74100
Zr1055     Zr  0.42467620  0.48582985  0.75140684     2.54700
O1056       O  0.35811990  0.43912313  0.75117242    -0.79100
O1057       O  0.40394695  0.53171898  0.75479754    -0.92500
Zr1058     Zr  0.47351103  0.42237159  0.75016659     2.64700
O1059       O  0.41281959  0.36459658  0.75031131    -0.97500
O1060       O  0.50814276  0.38871040  0.75044750    -0.79500
O1061       O  0.44841842  0.45307568  0.77939048    -0.82900
O1062       O  0.44765105  0.45305107  0.72224645    -2.17600
O1063       O  0.53504022  0.60329801  0.69992507    -0.66300
O1064       O  0.51738210  0.55675798  0.66490156    -0.50800
C1065       C  0.53043299  0.59130636  0.67230670     0.72500
O1066       O  0.59940599  0.52846686  0.80241349    -0.59200
O1067       O  0.55400275  0.51428708  0.83783855    -0.51100
C1068       C  0.58820331  0.52629638  0.83021156     0.74300
O1069       O  0.59727349  0.52337925  0.69788096    -0.70600
O1070       O  0.55211552  0.51334065  0.66321700    -0.49200
C1071       C  0.58556701  0.52169499  0.67035669     0.75700
O1072       O  0.53859765  0.60329887  0.80242874    -0.65900
O1073       O  0.52040319  0.55645548  0.83711308    -0.53100
C1074       C  0.53487332  0.59124604  0.82990036     0.74100
Zr1075     Zr  0.52450302  0.57734741  0.75128544     2.77500
O1076       O  0.58525300  0.63490980  0.75143021    -0.96600
O1077       O  0.49057198  0.61165208  0.75331047    -0.77500
Zr1078     Zr  0.57372112  0.51454810  0.75038076     2.70100
O1079       O  0.63741452  0.56771135  0.74849482    -0.78700
O1080       O  0.59939623  0.47252207  0.75075295    -0.97800
Zr1081     Zr  0.49931698  0.49932682  0.80827747     2.21500
Zr1082     Zr  0.49837604  0.50014672  0.69353346     2.11100
O1083       O  0.54963245  0.54676688  0.72211542    -2.46500
O1084       O  0.54978663  0.54626134  0.77956928    -0.78500
O1085       O  0.47368237  0.53254640  0.72145483    -0.70700
O1086       O  0.52433738  0.46747963  0.77996690    -2.31700
O1087       O  0.47420662  0.53199213  0.78134224    -2.27900
O1088       O  0.52390683  0.46807253  0.72059162    -0.72500
H1089       H  0.42801210  0.43473901  0.70936396     0.79500
H1090       H  0.53374901  0.45553447  0.79332880     0.80600
H1091       H  0.56903813  0.56501021  0.70904561     0.82800
H1092       H  0.46492894  0.54382605  0.79511926     0.80500
H1093       H  0.51933285  0.39299975  0.77100842     0.43500
H1094       H  0.59037132  0.45826015  0.76998079     0.42500
H1095       H  0.63442660  0.58989675  0.75174804     0.42100
H1096       H  0.59939480  0.63185561  0.73450524     0.40100
H1097       H  0.49781890  0.62689188  0.73450226     0.43200
H1098       H  0.37869307  0.51775379  0.76414682     0.38000
H1099       H  0.35720073  0.41535238  0.74558114     0.44100
H1100       H  0.39993799  0.36576174  0.73170763     0.40500
H1101       H  0.57996066  0.65464531  0.74443774     0.45400
H1102       H  0.39913347  0.53574689  0.73347597     0.44200
H1103       H  0.41868896  0.34441696  0.74622461     0.44300
H1104       H  0.58539061  0.45384726  0.73462259     0.44700
O1105       O  0.78837733  0.46988189  0.49865433    -0.74200
O1106       O  0.85004956  0.51614143  0.49733022    -0.53100
C1107       C  0.82628081  0.48287139  0.00135669     0.79500
O1108       O  0.72953951  0.56956598  0.91664894    -0.58800
O1109       O  0.69178742  0.57103096  0.95375785    -0.51800
C1110       C  0.69940385  0.56864306  0.92573711     0.71500
O1111       O  0.83713073  0.56625881  0.91703572    -0.73400
O1112       O  0.87868660  0.57152495  0.95337613    -0.53900
C1113       C  0.86721998  0.56685327  0.92568446     0.77500
O1114       O  0.67987477  0.47082649  0.49466098    -0.58500
O1115       O  0.66479967  0.51534765  0.00150894    -0.51600
C1116       C  0.65699242  0.48117181  0.00535417     0.74100
Zr1117     Zr  0.74762818  0.49691032  0.49652680     2.54700
O1118       O  0.72357979  0.44829361  0.96293885    -0.79100
O1119       O  0.72026391  0.44867605  0.53564784    -0.92500
Zr1120     Zr  0.78651421  0.57404986  0.93708612     2.64700
O1121       O  0.76451076  0.52952325  0.89490515    -0.97500
O1122       O  0.81359967  0.62513368  0.90033213    -0.79500
O1123       O  0.79843972  0.53462514  0.96872011    -0.82900
O1124       O  0.73545567  0.53362072  0.96881852    -2.17600
O1125       O  0.72655738  0.56014907  0.58328070    -0.66300
O1126       O  0.68955714  0.56486166  0.54737720    -0.50800
C1127       C  0.69602685  0.55866633  0.57478499     0.72500
O1128       O  0.89607651  0.68211409  0.00244751    -0.59200
O1129       O  0.90850472  0.63385116  0.00232688    -0.51100
C1130       C  0.91945038  0.66803272  0.50557238     0.74300
O1131       O  0.78395029  0.68113116  0.00194613    -0.70600
O1132       O  0.72346692  0.63229958  0.00260452    -0.49200
C1133       C  0.74963106  0.66876100  0.50472405     0.75700
O1134       O  0.83743155  0.56681445  0.58315469    -0.65900
O1135       O  0.87695993  0.56878296  0.54607774    -0.53100
C1136       C  0.86646221  0.56562345  0.57407291     0.74100
Zr1137     Zr  0.78647366  0.57322544  0.56258659     2.77500
O1138       O  0.81016110  0.62574685  0.59807465    -0.96600
O1139       O  0.76820171  0.53022168  0.60544328    -0.77500
Zr1140     Zr  0.82684420  0.65520852  0.99865853     2.70100
O1141       O  0.85067674  0.70281828  0.54212572    -0.78700
O1142       O  0.84543330  0.69454451  0.95342339    -0.97800
Zr1143     Zr  0.84980578  0.57540019  0.00025444     2.21500
Zr1144     Zr  0.72441906  0.57416331  0.00053447     2.11100
O1145       O  0.77522197  0.61449097  0.53311320    -2.46500
O1146       O  0.83901579  0.61447386  0.53271487    -0.78500
O1147       O  0.73540123  0.53401909  0.53059359    -0.70700
O1148       O  0.83900224  0.61521166  0.96725534    -2.31700
O1149       O  0.79762641  0.53407613  0.52993976    -2.27900
O1150       O  0.77465649  0.61460468  0.96751845    -0.72500
H1151       H  0.71363114  0.51732638  0.95678192     0.79500
H1152       H  0.86061718  0.63004106  0.95445007     0.80600
H1153       H  0.76835510  0.62876838  0.54638823     0.82800
H1154       H  0.80297813  0.51769673  0.54193319     0.80500
H1155       H  0.79270617  0.62012528  0.88643494     0.43500
H1156       H  0.84333651  0.71664418  0.95938668     0.42500
H1157       H  0.86434969  0.69517386  0.55623020     0.42100
H1158       H  0.78949407  0.63129275  0.60026227     0.40100
H1159       H  0.76196219  0.50578485  0.59621232     0.43200
H1160       H  0.70201051  0.42562906  0.52468653     0.38000
H1161       H  0.73513519  0.46194379  0.94384113     0.44100
H1162       H  0.73876654  0.50997325  0.90068273     0.40500
H1163       H  0.81089961  0.61474525  0.61788474     0.45400
H1164       H  0.70460033  0.45564892  0.54808133     0.44200
H1165       H  0.76104139  0.54305562  0.87776333     0.44300
H1166       H  0.87274770  0.70439153  0.95146341     0.44700
O1167       O  0.68268056  0.21345720  0.49080742    -0.74200
O1168       O  0.66490006  0.15151175  0.49581807    -0.53100
C1169       C  0.65728282  0.17674673  0.99269074     0.79500
O1170       O  0.84429532  0.26782620  0.91549955    -0.58800
O1171       O  0.88014858  0.30782430  0.95312843    -0.51800
C1172       C  0.87223068  0.29878949  0.92493700     0.71500
O1173       O  0.73347487  0.16264525  0.91343065    -0.73400
O1174       O  0.69395297  0.12453424  0.95048110    -0.53900
C1175       C  0.70248148  0.13438684  0.92252254     0.77500
O1176       O  0.79168208  0.32178484  0.50074913    -0.58500
O1177       O  0.85309615  0.33697839  0.99966931    -0.51600
C1178       C  0.82675955  0.34517530  0.00023588     0.74100
Zr1179     Zr  0.74996847  0.25433046  0.49639468     2.54700
O1180       O  0.72764420  0.28133092  0.96034978    -0.79100
O1181       O  0.72091688  0.27319700  0.53561480    -0.92500
Zr1182     Zr  0.79022587  0.21282454  0.93629349     2.64700
O1183       O  0.76971678  0.23534868  0.89332931    -0.97500
O1184       O  0.81602560  0.18335792  0.90373593    -0.79500
O1185       O  0.73792210  0.20231490  0.96609162    -0.82900
O1186       O  0.80054698  0.26483952  0.96676729    -2.17600
O1187       O  0.83888595  0.27116710  0.58207551    -0.66300
O1188       O  0.87940217  0.30824063  0.54515462    -0.50800
C1189       C  0.86860961  0.30082511  0.57302341     0.72500
O1190       O  0.78422064  0.10412862  0.99960448    -0.59200
O1191       O  0.72367784  0.09202664  0.99752668    -0.51100
C1192       C  0.74661349  0.08117782  0.49589487     0.74300
O1193       O  0.89585766  0.21499775  0.99869598    -0.70600
O1194       O  0.90899904  0.27603854  0.99933852    -0.49200
C1195       C  0.91869964  0.25032903  0.49472995     0.75700
O1196       O  0.73098687  0.16336623  0.58204774    -0.65900
O1197       O  0.69290152  0.12388617  0.54506806    -0.53100
C1198       C  0.70082034  0.13413735  0.57303541     0.74100
Zr1199     Zr  0.78779453  0.21423379  0.56059825     2.77500
O1200       O  0.81526180  0.18744279  0.59407568    -0.96600
O1201       O  0.76524823  0.23611434  0.60277847    -0.77500
Zr1202     Zr  0.82686471  0.17319937  0.00162577     2.70100
O1203       O  0.85040869  0.14858444  0.53726407    -0.78700
O1204       O  0.85062672  0.14583086  0.96486393    -0.97800
Zr1205     Zr  0.72445656  0.15112450  0.99871383     2.21500
Zr1206     Zr  0.85047879  0.27644451  0.00046872     2.11100
O1207       O  0.83954577  0.22512408  0.52996872    -2.46500
O1208       O  0.77478593  0.16153873  0.53005336    -0.78500
O1209       O  0.79996717  0.26595286  0.52940129    -0.70700
O1210       O  0.77669272  0.16132912  0.96807949    -2.31700
O1211       O  0.73670590  0.20380106  0.52917917    -2.27900
O1212       O  0.84050603  0.22479158  0.96912581    -0.72500
H1213       H  0.80693341  0.28638697  0.95414363     0.79500
H1214       H  0.77044001  0.13977424  0.95548227     0.80600
H1215       H  0.86111650  0.23154850  0.54263561     0.82800
H1216       H  0.71503800  0.19847864  0.54134540     0.80500
H1217       H  0.82532661  0.19966615  0.88554804     0.43500
H1218       H  0.86485160  0.16610338  0.94993860     0.42500
H1219       H  0.83601766  0.14708280  0.55577655     0.42100
H1220       H  0.83962767  0.20898560  0.60048383     0.40100
H1221       H  0.77663601  0.23199527  0.62111063     0.43200
H1222       H  0.71232521  0.28857581  0.52475228     0.38000
H1223       H  0.74375557  0.28534418  0.94238985     0.44100
H1224       H  0.77906017  0.26223566  0.89768036     0.40500
H1225       H  0.79954137  0.18018283  0.61263409     0.45400
H1226       H  0.74205294  0.29138318  0.54840386     0.44200
H1227       H  0.78501485  0.23539427  0.87591200     0.44300
H1228       H  0.87000515  0.14312830  0.97600723     0.44700
O1229       O  0.31735758  0.78783326  0.48430782    -0.74200
O1230       O  0.33559707  0.84920252  0.49365461    -0.53100
C1231       C  0.34381879  0.82566926  0.99003493     0.79500
O1232       O  0.15711096  0.73279395  0.91360973    -0.58800
O1233       O  0.11996203  0.69385418  0.95119885    -0.51800
C1234       C  0.12858177  0.70208787  0.92304853     0.71500
O1235       O  0.26951829  0.83951737  0.91365781    -0.73400
O1236       O  0.30772558  0.87937376  0.95056110    -0.53900
C1237       C  0.30003064  0.86845396  0.92272678     0.77500
O1238       O  0.20838925  0.67945874  0.49119276    -0.58500
O1239       O  0.14974619  0.66548452  0.99718848    -0.51600
C1240       C  0.17637362  0.65767312  0.99816027     0.74100
Zr1241     Zr  0.25067673  0.74702282  0.49239026     2.54700
O1242       O  0.27108545  0.72268105  0.95427987    -0.79100
O1243       O  0.27867860  0.72330170  0.52832213    -0.92500
Zr1244     Zr  0.21084426  0.78950642  0.93426787     2.64700
O1245       O  0.23381776  0.76807405  0.89200936    -0.97500
O1246       O  0.18686635  0.81826336  0.89923992    -0.79500
O1247       O  0.26307452  0.80080238  0.96442869    -0.82900
O1248       O  0.20063862  0.73747149  0.96425866    -2.17600
O1249       O  0.16758187  0.72586805  0.58275511    -0.66300
O1250       O  0.12377606  0.69109148  0.54712972    -0.50800
C1251       C  0.13650073  0.69712805  0.57449905     0.72500
O1252       O  0.21551746  0.89680358  0.00261172    -0.59200
O1253       O  0.27651127  0.90992970  0.00172263    -0.51100
C1254       C  0.25316386  0.91879493  0.50875733     0.74300
O1255       O  0.10385372  0.78519308  0.00154410    -0.70600
O1256       O  0.09156774  0.72448233  0.00079381    -0.49200
C1257       C  0.08183386  0.74923685  0.50732671     0.75700
O1258       O  0.27322657  0.83791501  0.58265506    -0.65900
O1259       O  0.31061083  0.87731421  0.54547266    -0.53100
C1260       C  0.30294830  0.86753155  0.57347734     0.74100
Zr1261     Zr  0.21734676  0.78428399  0.56215053     2.77500
O1262       O  0.19080810  0.80560905  0.60162675    -0.96600
O1263       O  0.24467844  0.76269200  0.60065051    -0.77500
Zr1264     Zr  0.17296676  0.82800958  0.99957708     2.70100
O1265       O  0.15214559  0.84987039  0.54737880    -0.78700
O1266       O  0.15016163  0.85257673  0.95984611    -0.97800
Zr1267     Zr  0.27628907  0.85120928  0.99806131     2.21500
Zr1268     Zr  0.15047682  0.72530684  0.99796075     2.11100
O1269       O  0.16391045  0.77466684  0.53459690    -2.46500
O1270       O  0.22739058  0.83737344  0.53390643    -0.78500
O1271       O  0.20305949  0.73376532  0.52850211    -0.70700
O1272       O  0.22421535  0.84101131  0.96670551    -2.31700
O1273       O  0.26659171  0.79612030  0.52797561    -2.27900
O1274       O  0.15972004  0.77677539  0.96663768    -0.72500
H1275       H  0.19453840  0.71602836  0.95154823     0.79500
H1276       H  0.23066857  0.86291911  0.95459756     0.80600
H1277       H  0.14331731  0.76773621  0.54853145     0.82800
H1278       H  0.28893730  0.80120145  0.53897681     0.80500
H1279       H  0.16169438  0.79765705  0.89330173     0.41700
H1280       H  0.13606376  0.83110175  0.94586026     0.42500
H1281       H  0.17367011  0.86161909  0.56157244     0.42100
H1282       H  0.20607917  0.80872331  0.61992204     0.40100
H1283       H  0.24546585  0.77644835  0.61940411     0.43200
H1284       H  0.27813569  0.70174672  0.51775805     0.38000
H1285       H  0.26784168  0.73411656  0.93557765     0.44100
H1286       H  0.21780593  0.74037557  0.89151109     0.40500
H1287       H  0.19811619  0.83157635  0.59565399     0.45400
H1288       H  0.25977027  0.71174698  0.54471945     0.44200
H1289       H  0.22680504  0.77686821  0.87355158     0.44300
H1290       H  0.13062132  0.85608850  0.96994784     0.44700
O1291       O  0.56900235  0.83660238  0.91506412    -0.74200
O1292       O  0.57181821  0.87806863  0.95058349    -0.53100
C1293       C  0.56789191  0.86613293  0.92302875     0.79500
O1294       O  0.47078219  0.68024363  0.50889774    -0.58800
O1295       O  0.51509137  0.66394557  0.00135975    -0.51800
C1296       C  0.48070527  0.65609978  0.00352934     0.71500
O1297       O  0.46953953  0.78609329  0.48972395    -0.73400
O1298       O  0.51376328  0.84807874  0.49424823    -0.53900
C1299       C  0.48133626  0.82430611  0.98975539     0.77500
O1300       O  0.57599110  0.73168125  0.91615339    -0.58500
O1301       O  0.57343900  0.69259948  0.95383767    -0.51600
C1302       C  0.57371605  0.70105864  0.92563258     0.74100
Zr1303     Zr  0.58004947  0.78851209  0.93645199     2.54700
O1304       O  0.54666771  0.76983792  0.88822317    -0.79100
O1305       O  0.63869936  0.82112653  0.90812552    -0.92500
Zr1306     Zr  0.49646177  0.74676557  0.50003616     2.64700
O1307       O  0.45331638  0.71835056  0.95323891    -0.97500
O1308       O  0.45262447  0.73507573  0.54141232    -0.79500
O1309       O  0.53722498  0.79891312  0.96485339    -0.82900
O1310       O  0.53683263  0.73596870  0.96579644    -2.17600
O1311       O  0.68097078  0.78506678  0.00439376    -0.66300
O1312       O  0.63250293  0.72426775  0.00485497    -0.50800
C1313       C  0.66829558  0.74890964  0.50433917     0.72500
O1314       O  0.57115173  0.84131070  0.58240516    -0.59200
O1315       O  0.57004395  0.87846693  0.54456090    -0.51100
C1316       C  0.56902820  0.86966609  0.57281687     0.74300
O1317       O  0.56753928  0.73066050  0.58430890    -0.70600
O1318       O  0.56994359  0.69206591  0.54830462    -0.49200
C1319       C  0.56645182  0.70013308  0.57592592     0.75700
O1320       O  0.68123218  0.89667476  0.00099283    -0.65900
O1321       O  0.63273781  0.90858957  0.99798079    -0.53100
C1322       C  0.66670394  0.91842976  0.49502331     0.74100
Zr1323     Zr  0.65430054  0.82747736  0.00280528     2.77500
O1324       O  0.70320537  0.85517376  0.53727136    -0.96600
O1325       O  0.70492483  0.85282263  0.96559824    -0.77500
Zr1326     Zr  0.57646339  0.78916731  0.56261397     2.70100
O1327       O  0.63191583  0.81679573  0.59499776    -0.78700
O1328       O  0.53631969  0.77215075  0.60741174    -0.97800
Zr1329     Zr  0.57399232  0.84989192  0.99831837     2.21500
Zr1330     Zr  0.57386111  0.72406562  0.00076643     2.11100
O1331       O  0.61571987  0.77628392  0.53184577    -2.46500
O1332       O  0.61513139  0.83997168  0.53005679    -0.78500
O1333       O  0.61718729  0.77567295  0.96992744    -0.70700
O1334       O  0.53493954  0.79866250  0.53131484    -2.31700
O1335       O  0.61703284  0.83993789  0.96863786    -2.27900
O1336       O  0.53573114  0.73637168  0.53277656    -0.72500
H1337       H  0.52175499  0.71442791  0.95306385     0.79500
H1338       H  0.51902038  0.80468179  0.54334254     0.80600
H1339       H  0.63078225  0.77022091  0.54489766     0.82800
H1340       H  0.63267626  0.86163385  0.95625662     0.80500
H1341       H  0.46545248  0.73304688  0.55971586     0.43500
H1342       H  0.51483238  0.74689572  0.60283770     0.42500
H1343       H  0.63434826  0.79523119  0.60192323     0.42100
H1344       H  0.69597002  0.83535249  0.55283472     0.40100
H1345       H  0.69763304  0.83231876  0.95061034     0.43200
H1346       H  0.64031521  0.84485448  0.90140154     0.38000
H1347       H  0.51999653  0.75964347  0.89381658     0.44100
H1348       H  0.43007174  0.71812627  0.95941210     0.40500
H1349       H  0.72584269  0.85724831  0.52748681     0.45400
H1350       H  0.63385105  0.80626296  0.88923005     0.44200
H1351       H  0.46390698  0.73718301  0.93672629     0.44300
H1352       H  0.55036425  0.76792932  0.62369995     0.44700
O1353       O  0.20931004  0.52883703  0.49367249    -0.74200
O1354       O  0.14773937  0.48329657  0.49814433    -0.53100
C1355       C  0.17523192  0.51907645  0.00199285     0.79500
O1356       O  0.26858802  0.42946197  0.91564409    -0.58800
O1357       O  0.30590333  0.42744942  0.95277202    -0.51800
C1358       C  0.29840560  0.42991626  0.92475080     0.71500
O1359       O  0.16213841  0.43338619  0.91683927    -0.73400
O1360       O  0.12143646  0.43064090  0.95302860    -0.53900
C1361       C  0.13260988  0.43404837  0.92529992     0.77500
O1362       O  0.31727394  0.52937390  0.50973851    -0.58500
O1363       O  0.33479933  0.48335296  0.00109646    -0.51600
C1364       C  0.34279227  0.51773343  0.00399946     0.74100
Zr1365     Zr  0.25033489  0.50294271  0.50124479     2.54700
O1366       O  0.27433924  0.54538275  0.95707462    -0.79100
O1367       O  0.26738530  0.55008225  0.54108553    -0.92500
Zr1368     Zr  0.21208349  0.42474410  0.93682828     2.64700
O1369       O  0.23186107  0.46638678  0.89284596    -0.97500
O1370       O  0.18356576  0.37080696  0.90274242    -0.79500
O1371       O  0.20078625  0.46518055  0.96789890    -0.82900
O1372       O  0.26364041  0.46517067  0.96806974    -2.17600
O1373       O  0.26845097  0.43512754  0.58491661    -0.66300
O1374       O  0.30651667  0.43149874  0.54913894    -0.50800
C1375       C  0.29901475  0.43635949  0.57664306     0.72500
O1376       O  0.10301788  0.31856424  0.99786894    -0.59200
O1377       O  0.09065372  0.36693669  0.99717407    -0.51100
C1378       C  0.08003555  0.33013061  0.49522219     0.74300
O1379       O  0.21466513  0.31832474  0.00074837    -0.70600
O1380       O  0.27518449  0.36698945  0.00216998    -0.49200
C1381       C  0.25046112  0.33167018  0.50528050     0.75700
O1382       O  0.15656709  0.42624171  0.58351553    -0.65900
O1383       O  0.11816370  0.42589237  0.54629301    -0.53100
C1384       C  0.12769994  0.42754466  0.57435793     0.74100
Zr1385     Zr  0.20882228  0.42199877  0.56332252     2.77500
O1386       O  0.18275719  0.36461762  0.59325717    -0.96600
O1387       O  0.22145212  0.45765393  0.61035089    -0.77500
Zr1388     Zr  0.17189564  0.34472510  0.99931433     2.70100
O1389       O  0.14408512  0.29522323  0.53803038    -0.78700
O1390       O  0.14921770  0.29804774  0.95875723    -0.97800
Zr1391     Zr  0.14945788  0.42544741  0.99979022     2.21500
Zr1392     Zr  0.27444715  0.42511593  0.00022342     2.11100
O1393       O  0.22254460  0.38349603  0.53246685    -2.46500
O1394       O  0.15792405  0.38268285  0.53132167    -0.78500
O1395       O  0.26116183  0.46356719  0.53350235    -0.70700
O1396       O  0.16024721  0.38475978  0.96756779    -2.31700
O1397       O  0.19875121  0.46355146  0.53267002    -2.27900
O1398       O  0.22380984  0.38444424  0.96757468    -0.72500
H1399       H  0.28542926  0.48108779  0.95587986     0.79500
H1400       H  0.13889427  0.36998046  0.95459065     0.80600
H1401       H  0.22902702  0.36875694  0.54549580     0.82800
H1402       H  0.19253418  0.47912958  0.54500929     0.80500
H1403       H  0.19037834  0.38169079  0.88207520     0.43500
H1404       H  0.16827976  0.30957466  0.94247766     0.42500
H1405       H  0.16412459  0.30225885  0.55333908     0.42100
H1406       H  0.18699188  0.37338310  0.61463411     0.40100
H1407       H  0.23109827  0.48388131  0.60361638     0.43200
H1408       H  0.27328178  0.53928508  0.55890143     0.38000
H1409       H  0.29750040  0.56773016  0.96442682     0.44100
H1410       H  0.25797064  0.48616453  0.89735618     0.40500
H1411       H  0.15527533  0.35267627  0.59042132     0.45400
H1412       H  0.24372606  0.54931624  0.54670607     0.44200
H1413       H  0.23413134  0.45169192  0.87595053     0.44300
H1414       H  0.15241961  0.27730235  0.96664950     0.44700
O1415       O  0.43054594  0.16071333  0.91499759    -0.74200
O1416       O  0.42826068  0.12087457  0.95200106    -0.53100
C1417       C  0.43165993  0.13161552  0.92409345     0.79500
O1418       O  0.52971580  0.31872963  0.00314828    -0.58800
O1419       O  0.48485641  0.33534514  0.99757213    -0.51800
C1420       C  0.51899221  0.34316403  0.00172745     0.71500
O1421       O  0.52945014  0.21296260  0.48676669    -0.73400
O1422       O  0.48593316  0.15155325  0.49548116    -0.53900
C1423       C  0.51818644  0.17474114  0.99290751     0.77500
O1424       O  0.42509047  0.26574146  0.91344194    -0.58500
O1425       O  0.42556179  0.30460853  0.95061141    -0.51600
C1426       C  0.42670513  0.29622006  0.92262168     0.74100
Zr1427     Zr  0.42000623  0.20932323  0.93570976     2.54700
O1428       O  0.45378606  0.22817484  0.88764403    -0.79100
O1429       O  0.36055452  0.17688459  0.90851404    -0.92500
Zr1430     Zr  0.50308845  0.25364979  0.49256746     2.64700
O1431       O  0.54602577  0.27856134  0.95322641    -0.97500
O1432       O  0.55518705  0.27836135  0.52835293    -0.79500
O1433       O  0.46231015  0.19952556  0.96550321    -0.82900
O1434       O  0.46327723  0.26241090  0.96454404    -2.17600
O1435       O  0.31915250  0.21562079  0.00254207    -0.66300
O1436       O  0.36773684  0.27634583  0.00171739    -0.50800
C1437       C  0.33141560  0.25068524  0.50618266     0.72500
O1438       O  0.43567181  0.16556898  0.58318173    -0.59200
O1439       O  0.43407373  0.12546047  0.54690609    -0.51100
C1440       C  0.43677563  0.13627949  0.57472728     0.74300
O1441       O  0.43742484  0.27442038  0.58226432    -0.70600
O1442       O  0.43023515  0.30937638  0.54572188    -0.49200
C1443       C  0.43537889  0.30302785  0.57346512     0.75700
O1444       O  0.31939742  0.10381579  0.00527189    -0.65900
O1445       O  0.36723974  0.09065600  0.00471416    -0.53100
C1446       C  0.33475095  0.08126440  0.50926809     0.74100
Zr1447     Zr  0.34509511  0.17253201  0.00114006     2.77500
O1448       O  0.30088422  0.15050408  0.54692168    -0.96600
O1449       O  0.29987524  0.14798161  0.95968792    -0.77500
Zr1450     Zr  0.43191357  0.21748222  0.56168999     2.70100
O1451       O  0.38680237  0.19698717  0.60325922    -0.78700
O1452       O  0.48481537  0.24321687  0.59672786    -0.97800
Zr1453     Zr  0.42537523  0.14960332  0.99961774     2.21500
Zr1454     Zr  0.42581781  0.27539008  0.99808623     2.11100
O1455       O  0.38786102  0.22594815  0.53354430    -2.46500
O1456       O  0.38901091  0.16350921  0.53400026    -0.78500
O1457       O  0.38259702  0.22335391  0.96779847    -0.70700
O1458       O  0.46948639  0.20514427  0.52827499    -2.31700
O1459       O  0.38264971  0.15837636  0.96850149    -2.27900
O1460       O  0.46807886  0.26733514  0.52777641    -0.72500
H1461       H  0.47863498  0.28363048  0.95153759     0.79500
H1462       H  0.48667537  0.20032984  0.53963773     0.80600
H1463       H  0.37408011  0.23300214  0.54725860     0.82800
H1464       H  0.36701655  0.13600433  0.95666993     0.80500
H1465       H  0.55023521  0.25678540  0.54142123     0.43500
H1466       H  0.50123088  0.26948518  0.58997897     0.42500
H1467       H  0.36439824  0.17431054  0.59532625     0.42100
H1468       H  0.31219861  0.17102797  0.56210813     0.40100
H1469       H  0.27864905  0.15091800  0.96674138     0.43200
H1470       H  0.36327236  0.15951257  0.89451527     0.38000
H1471       H  0.47922108  0.24864378  0.89317936     0.44100
H1472       H  0.56793693  0.27594371  0.95860190     0.40500
H1473       H  0.27875541  0.15134402  0.53918366     0.45400
H1474       H  0.36074063  0.19625800  0.89508445     0.44200
H1475       H  0.53362836  0.26041573  0.93642043     0.44300
H1476       H  0.47430995  0.24540815  0.61639372     0.44700
C1477       C  0.29827433  0.31831146  0.52743907     0.24700
C1478       C  0.26599061  0.30607316  0.50936242    -0.23400
C1479       C  0.25253188  0.27202539  0.99017651     0.19600
C1480       C  0.27263954  0.25247002  0.99044592     0.24600
C1481       C  0.30569521  0.26607350  0.50995730    -0.23400
C1482       C  0.31787983  0.29880008  0.52759633     0.19500
F1483       F  0.34996952  0.31298874  0.54418428    -0.13300
F1484       F  0.31181837  0.35022273  0.54431562    -0.15700
F1485       F  0.25992482  0.22063297  0.97368562    -0.15700
F1486       F  0.22097850  0.25864292  0.97307817    -0.13300
C1487       C  0.44251522  0.59028447  0.98351422     0.24700
C1488       C  0.45062877  0.61660469  0.00695597    -0.23400
C1489       C  0.42506827  0.60888628  0.53641842     0.19600
C1490       C  0.39037745  0.57561974  0.53625450     0.24600
C1491       C  0.38226647  0.54777577  0.00714452    -0.23400
C1492       C  0.40852504  0.55581993  0.98370736     0.19500
F1493       F  0.39984564  0.53204232  0.95973387    -0.13300
F1494       F  0.46570730  0.59941772  0.95912276    -0.15700
F1495       F  0.36467759  0.57045889  0.55792292    -0.15700
F1496       F  0.43222981  0.63490517  0.55840135    -0.13300
C1497       C  0.32315757  0.01948977  0.52924968     0.24700
C1498       C  0.30950554  0.03999639  0.51355408    -0.23400
C1499       C  0.27601034  0.02066957  0.98881208     0.19600
C1500       C  0.25632680  0.98109947  0.98774196     0.24600
C1501       C  0.26933128  0.96007767  0.51310974    -0.23400
C1502       C  0.30333806  0.98026489  0.52915063     0.19500
F1503       F  0.31825353  0.96189684  0.54404413    -0.13300
F1504       F  0.35648875  0.03749862  0.54419304    -0.15700
F1505       F  0.23010343  0.96318382  0.96580782    -0.15700
F1506       F  0.26805258  0.04011127  0.96812345    -0.13300
C1507       C  0.14525782  0.58941221  0.51384762     0.24700
C1508       C  0.16714144  0.61830058  0.00142322    -0.23400
C1509       C  0.15011268  0.59183028  0.97787058     0.19600
C1510       C  0.14938631  0.55727661  0.97913184     0.24600
C1511       C  0.16571839  0.54913709  0.00388542    -0.23400
C1512       C  0.14605497  0.55559162  0.51423441     0.19500
F1513       F  0.13247618  0.53272283  0.53882427    -0.13300
F1514       F  0.13003476  0.59802644  0.53773865    -0.15700
F1515       F  0.13567962  0.53326501  0.95516971    -0.15700
F1516       F  0.13731519  0.60069729  0.95260788    -0.13300
C1517       C  0.39080366  0.81537077  0.96279184     0.24700
C1518       C  0.38313696  0.83450536  0.98574028    -0.23400
C1519       C  0.40986861  0.85374104  0.50368595     0.19600
C1520       C  0.44379181  0.85334948  0.50430029     0.24600
C1521       C  0.45129325  0.83360803  0.98557541    -0.23400
C1522       C  0.42449343  0.81501041  0.96267483     0.19500
F1523       F  0.43017530  0.79478076  0.94099839    -0.13300
F1524       F  0.36457697  0.79508286  0.94138682    -0.15700
F1525       F  0.46924424  0.87280923  0.52633127    -0.15700
F1526       F  0.40311476  0.87285312  0.52560736    -0.13300
C1527       C  0.72394322  0.98007192  0.51094617     0.24700
C1528       C  0.69240450  0.95978348  0.49206755    -0.23400
C1529       C  0.68278341  0.98035912  0.97571574     0.19600
C1530       C  0.70186311  0.01951241  0.97569119     0.24600
C1531       C  0.73108539  0.03974640  0.49292971    -0.23400
C1532       C  0.74324025  0.01980845  0.51130674     0.19500
F1533       F  0.77204329  0.03858212  0.53106848    -0.13300
F1534       F  0.73445476  0.96153120  0.53047089    -0.15700
F1535       F  0.68897326  0.03721512  0.95746819    -0.15700
F1536       F  0.65255150  0.96176319  0.95715912    -0.13300
C1537       C  0.97922186  0.25458696  0.51239968     0.24700
C1538       C  0.95955085  0.26423000  0.49151280    -0.23400
C1539       C  0.98000893  0.29123692  0.46909214     0.19600
C1540       C  0.01925362  0.31058581  0.46916604     0.24600
C1541       C  0.03912879  0.30342206  0.49162525    -0.23400
C1542       C  0.01882126  0.27388978  0.51230489     0.19500
F1543       F  0.03720229  0.26555485  0.53371282    -0.13300
F1544       F  0.96028350  0.22863053  0.53428899    -0.15700
F1545       F  0.03683396  0.34589646  0.95491354    -0.15700
F1546       F  0.96111311  0.30674142  0.95467129    -0.13300
C1547       C  0.60790366  0.18236761  0.96498014     0.24700
C1548       C  0.61779547  0.16722913  0.98945177    -0.23400
C1549       C  0.59163300  0.14885020  0.01291415     0.19600
C1550       C  0.55706118  0.14799306  0.01287262     0.24600
C1551       C  0.54848298  0.16567096  0.98942721    -0.23400
C1552       C  0.57364758  0.18164073  0.96498462     0.19500
F1553       F  0.56602498  0.19878298  0.94198665    -0.13300
F1554       F  0.63249220  0.19989118  0.94187055    -0.15700
F1555       F  0.52943026  0.12855072  0.52921025    -0.15700
F1556       F  0.59625276  0.12943746  0.53115331    -0.13300
C1557       C  0.98065458  0.68258542  0.52864523     0.24700
C1558       C  0.96070447  0.69385613  0.50954923    -0.23400
C1559       C  0.98034666  0.72821463  0.99017005     0.19600
C1560       C  0.02005333  0.74782143  0.98992427     0.24600
C1561       C  0.04060517  0.73395104  0.51055331    -0.23400
C1562       C  0.01987991  0.70240534  0.52928060     0.19500
F1563       F  0.03778624  0.68996127  0.54772171    -0.13300
F1564       F  0.96201239  0.65162055  0.54643753    -0.15700
F1565       F  0.03882817  0.77907268  0.97251721    -0.15700
F1566       F  0.96181320  0.74054310  0.97242883    -0.13300
C1567       C  0.72766087  0.74807618  0.99326843     0.24700
C1568       C  0.69431213  0.73393017  0.50838776    -0.23400
C1569       C  0.68258315  0.70187019  0.52666778     0.19600
C1570       C  0.70248758  0.68273047  0.52694505     0.24600
C1571       C  0.73448731  0.69459173  0.50861967    -0.23400
C1572       C  0.74711406  0.72789266  0.99249609     0.19500
F1573       F  0.77866214  0.74100515  0.97536067    -0.13300
F1574       F  0.74100570  0.78022322  0.97692429    -0.15700
F1575       F  0.68978955  0.65173133  0.54475733    -0.15700
F1576       F  0.65096232  0.68824678  0.54383217    -0.13300
C1577       C  0.82703587  0.39784623  0.52868887     0.24700
C1578       C  0.83663227  0.38487084  0.00230606    -0.23400
C1579       C  0.84881046  0.40840400  0.97661739     0.19600
C1580       C  0.84915760  0.44277464  0.97706129     0.24600
C1581       C  0.83641805  0.45328404  0.00292849    -0.23400
C1582       C  0.82534836  0.43094331  0.52790823     0.19500
F1583       F  0.81293735  0.44116091  0.55277911    -0.13300
F1584       F  0.81622979  0.37659551  0.55431537    -0.15700
F1585       F  0.85873092  0.46406876  0.95149414    -0.15700
F1586       F  0.85724596  0.39670896  0.95042938    -0.13300
C1587       C  0.59291279  0.44077397  0.51971434     0.24700
C1588       C  0.61745134  0.45121099  0.00741167    -0.23400
C1589       C  0.59355517  0.44238966  0.98220343     0.19600
C1590       C  0.55925549  0.40838451  0.98133183     0.24600
C1591       C  0.54887645  0.38272357  0.00550478    -0.23400
C1592       C  0.55839688  0.40693095  0.51909495     0.19500
F1593       F  0.53799629  0.39417565  0.54505328    -0.13300
F1594       F  0.60517567  0.46014382  0.54623329    -0.15700
F1595       F  0.53802347  0.39904134  0.95578163    -0.15700
F1596       F  0.60511723  0.46484549  0.95728297    -0.13300
C1597       C  0.43728277  0.34291653  0.65139281     0.24700
C1598       C  0.45574981  0.38183797  0.64564190    -0.23400
C1599       C  0.46478820  0.39431529  0.61522225     0.19600
C1600       C  0.45647710  0.36865788  0.59145781     0.24600
C1601       C  0.43972080  0.33007390  0.59755265    -0.23400
C1602       C  0.42976523  0.31749472  0.62774080     0.19500
F1603       F  0.41303990  0.28034490  0.63460090    -0.13300
F1604       F  0.42683381  0.32909933  0.67998280    -0.15700
F1605       F  0.46677991  0.38187962  0.56272177    -0.15700
F1606       F  0.48314390  0.43149531  0.60835600    -0.13300
C1607       C  0.46319377  0.38999420  0.88384265     0.24700
C1608       C  0.45302652  0.37915360  0.85329744    -0.23400
C1609       C  0.43124640  0.34050312  0.84637431     0.19600
C1610       C  0.42125619  0.31354685  0.86911651     0.24600
C1611       C  0.43261792  0.32446701  0.89933963    -0.23400
C1612       C  0.45288262  0.36296362  0.90656197     0.19500
F1613       F  0.46435196  0.37466077  0.93548140    -0.13300
F1614       F  0.48423511  0.42673299  0.89186858    -0.15700
F1615       F  0.40041578  0.27665965  0.86144855    -0.15700
F1616       F  0.41961572  0.32843493  0.81753875    -0.13300
C1617       C  0.66886664  0.53204681  0.62608645     0.24700
C1618       C  0.66665650  0.54850493  0.59855418    -0.23400
C1619       C  0.63610078  0.55444790  0.59430520     0.19600
C1620       C  0.60932166  0.54532053  0.61737875     0.24600
C1621       C  0.61264166  0.53018975  0.64521903    -0.23400
C1622       C  0.64226732  0.52304334  0.64894892     0.19500
F1623       F  0.64481875  0.50589687  0.67444986    -0.13300
F1624       F  0.69628468  0.52351239  0.63089842    -0.15700
F1625       F  0.58047280  0.55177959  0.61253166    -0.15700
F1626       F  0.63219095  0.56941401  0.56802331    -0.13300
C1627       C  0.60581427  0.53383507  0.88608978     0.24700
C1628       C  0.61664622  0.53916574  0.85509415    -0.23400
C1629       C  0.65524534  0.55806474  0.84817661     0.19600
C1630       C  0.68201144  0.56937268  0.87122575     0.24600
C1631       C  0.67116027  0.56229777  0.90200796    -0.23400
C1632       C  0.63276795  0.54550401  0.90920535     0.19500
F1633       F  0.62098093  0.53889952  0.93857875    -0.13300
F1634       F  0.56909079  0.51656468  0.89431956    -0.15700
F1635       F  0.71879555  0.58714350  0.86316362    -0.15700
F1636       F  0.66751814  0.56580193  0.81898595    -0.13300
C1637       C  0.56212612  0.65805465  0.65336388     0.24700
C1638       C  0.54095286  0.61916350  0.64732498    -0.23400
C1639       C  0.52980314  0.60725866  0.61706100     0.19600
C1640       C  0.53922193  0.63347860  0.59367080     0.24600
C1641       C  0.55969264  0.67223468  0.59993903    -0.23400
C1642       C  0.57141592  0.68415967  0.62996457     0.19500
F1643       F  0.59213213  0.72131438  0.63677358    -0.13300
F1644       F  0.57385272  0.67118565  0.68196164    -0.15700
F1645       F  0.52670516  0.62078638  0.56511732    -0.15700
F1646       F  0.50848172  0.57021603  0.61004565    -0.13300
C1647       C  0.55135846  0.63465068  0.90885932     0.24700
C1648       C  0.56902647  0.67322370  0.90204216    -0.23400
C1649       C  0.57864163  0.68468545  0.87160265     0.19600
C1650       C  0.56815599  0.65824258  0.84832385     0.24600
C1651       C  0.54817775  0.61945041  0.85486442    -0.23400
C1652       C  0.54106689  0.60808737  0.88558510     0.19500
F1653       F  0.52297733  0.57116670  0.89331986    -0.13300
F1654       F  0.54233475  0.62226706  0.93792467    -0.15700
F1655       F  0.57730813  0.67100967  0.81933705    -0.15700
F1656       F  0.59785248  0.72170227  0.86411929    -0.13300
C1657       C  0.34327339  0.44924712  0.65450937     0.24700
C1658       C  0.38170121  0.46574300  0.64745245    -0.23400
C1659       C  0.39254081  0.47080599  0.61651933     0.19600
C1660       C  0.36577583  0.46077088  0.59347317     0.24600
C1661       C  0.32745957  0.44484912  0.60068841    -0.23400
C1662       C  0.31662611  0.43895119  0.63152088     0.19500
F1663       F  0.27998420  0.42302896  0.63971544    -0.13300
F1664       F  0.33100346  0.44258503  0.68375075    -0.15700
F1665       F  0.37771225  0.46801242  0.56416069    -0.15700
F1666       F  0.42911772  0.48597032  0.60831186    -0.13300
C1667       C  0.31581304  0.42940546  0.87020135     0.24700
C1668       C  0.32642985  0.43562370  0.90106658    -0.23400
C1669       C  0.36455164  0.45083968  0.90851352     0.19600
C1670       C  0.39158879  0.46146168  0.88564206     0.24600
C1671       C  0.38116598  0.45739346  0.85468755    -0.23400
C1672       C  0.34275815  0.44039276  0.84736423     0.19500
F1673       F  0.33087122  0.43461332  0.81802473    -0.13300
F1674       F  0.27919740  0.41307218  0.86183994    -0.15700
F1675       F  0.42808338  0.47681084  0.89406411    -0.15700
F1676       F  0.37611986  0.45714512  0.93791240    -0.13300
C1677       C  0.88364901  0.56561014  0.62868461     0.24700
C1678       C  0.88767550  0.55854104  0.59792222    -0.23400
C1679       C  0.90935421  0.54183052  0.59088537     0.19600
C1680       C  0.92534842  0.53114431  0.61412648     0.24600
C1681       C  0.91974741  0.53663351  0.64507903    -0.23400
C1682       C  0.89917731  0.55465258  0.65183431     0.19500
F1683       F  0.89410727  0.56219743  0.68095591    -0.13300
F1684       F  0.86463258  0.58340935  0.63664398    -0.15700
F1685       F  0.94595660  0.51506556  0.60607541    -0.15700
F1686       F  0.91421522  0.53470126  0.56156469    -0.13300
C1687       C  0.89988933  0.55588650  0.84782780     0.24700
C1688       C  0.92248207  0.54008087  0.85463953    -0.23400
C1689       C  0.92943403  0.53630914  0.88557678     0.19600
C1690       C  0.91325129  0.54690946  0.90880352     0.24600
C1691       C  0.88899256  0.56063897  0.90173270    -0.23400
C1692       C  0.88333785  0.56581258  0.87095213     0.19500
F1693       F  0.86145664  0.58044678  0.86293143    -0.13300
F1694       F  0.89311182  0.56150353  0.81866850    -0.15700
F1695       F  0.92041151  0.54244105  0.93816764    -0.15700
F1696       F  0.95123947  0.52161720  0.89363932    -0.13300
C1697       C  0.92096841  0.39292443  0.61509127     0.24700
C1698       C  0.92217633  0.38073265  0.64485763    -0.23400
C1699       C  0.90899792  0.34230003  0.64983039     0.19600
C1700       C  0.89295426  0.31649200  0.62609348     0.24600
C1701       C  0.89064649  0.32859925  0.59669544    -0.23400
C1702       C  0.90574804  0.36713381  0.59121911     0.19500
F1703       F  0.90368215  0.37968881  0.56315162    -0.13300
F1704       F  0.93311469  0.42965135  0.60913714    -0.15700
F1705       F  0.87932136  0.27946734  0.63195182    -0.15700
F1706       F  0.91171949  0.32952188  0.67761463    -0.13300
C1707       C  0.91059809  0.34070062  0.84760963     0.24700
C1708       C  0.92588505  0.37935617  0.85342875    -0.23400
C1709       C  0.92700520  0.39126749  0.88375041     0.19600
C1710       C  0.91218560  0.36520107  0.90737007     0.24600
C1711       C  0.89485203  0.32651362  0.90124410    -0.23400
C1712       C  0.89511608  0.31462290  0.87119558     0.19500
F1713       F  0.87997150  0.27756481  0.86446132    -0.13300
F1714       F  0.91031974  0.32784492  0.81907780    -0.15700
F1715       F  0.91310660  0.37795416  0.93603427    -0.15700
F1716       F  0.94105257  0.42812329  0.89066252    -0.13300
C1717       C  0.08532415  0.45159906  0.59129671     0.24700
C1718       C  0.10608704  0.43393977  0.59819755    -0.23400
C1719       C  0.11027774  0.42698571  0.62889392     0.19600
C1720       C  0.09603012  0.43928929  0.65213292     0.24600
C1721       C  0.07676922  0.45865589  0.64543121    -0.23400
C1722       C  0.07116713  0.46417705  0.61460248     0.19500
F1723       F  0.05279637  0.48260204  0.60675002    -0.13300
F1724       F  0.07992901  0.45817213  0.56201797    -0.15700
F1725       F  0.10134938  0.43205518  0.68123781    -0.15700
F1726       F  0.12865733  0.40851212  0.63667624    -0.13300
C1727       C  0.10090781  0.44424937  0.84689704     0.24700
C1728       C  0.07677674  0.45836658  0.85342300    -0.23400
C1729       C  0.06884378  0.46161831  0.88423126     0.19600
C1730       C  0.08544046  0.45207622  0.90768592     0.24600
C1731       C  0.11108180  0.43989843  0.90099540    -0.23400
C1732       C  0.11782960  0.43530231  0.87026165     0.19500
F1733       F  0.14107923  0.42213643  0.86247593    -0.13300
F1734       F  0.10883296  0.43937241  0.81782542    -0.15700
F1735       F  0.07703173  0.45581716  0.93689493    -0.15700
F1736       F  0.04549212  0.47466555  0.89196574    -0.13300
C1737       C  0.08740843  0.63215117  0.59158679     0.24700
C1738       C  0.11467040  0.66945496  0.59861357    -0.23400
C1739       C  0.12226885  0.68008004  0.62942966     0.19600
C1740       C  0.10467469  0.65390241  0.65252624     0.24600
C1741       C  0.07844541  0.61616276  0.64566092    -0.23400
C1742       C  0.06954808  0.60578624  0.61480193     0.19500
F1743       F  0.04377274  0.57005392  0.60681770    -0.13300
F1744       F  0.07844839  0.62077897  0.56226392    -0.15700
F1745       F  0.11386993  0.66594354  0.68169133    -0.15700
F1746       F  0.14676465  0.71616012  0.63755285    -0.13300
C1747       C  0.08545684  0.63506632  0.90705307     0.24700
C1748       C  0.10557997  0.67359089  0.89972438    -0.23400
C1749       C  0.10647788  0.68425773  0.86920793     0.19600
C1750       C  0.08953909  0.65719402  0.84640015     0.24600
C1751       C  0.07146380  0.61853365  0.85336866    -0.23400
C1752       C  0.06871244  0.60788843  0.88420365     0.19500
F1753       F  0.05104712  0.57112826  0.89242016    -0.13300
F1754       F  0.08356812  0.62335355  0.93618370    -0.15700
F1755       F  0.09140347  0.66920611  0.81737713    -0.15700
F1756       F  0.12431525  0.72107964  0.86117590    -0.13300
C1757       C  0.36889276  0.91199703  0.59066167     0.24700
C1758       C  0.33034679  0.89065054  0.59719627    -0.23400
C1759       C  0.31832045  0.88868484  0.62746067     0.19600
C1760       C  0.34427778  0.90492807  0.65097377     0.24600
C1761       C  0.38312069  0.92429061  0.64478466    -0.23400
C1762       C  0.39500873  0.92844442  0.61415783     0.19500
F1763       F  0.43200236  0.94754790  0.60673560    -0.13300
F1764       F  0.38161351  0.91589902  0.56165028    -0.15700
F1765       F  0.33101274  0.90140488  0.67979229    -0.15700
F1766       F  0.28118477  0.87088445  0.63443852    -0.13300
C1767       C  0.39351234  0.92134266  0.88219188     0.24700
C1768       C  0.38225878  0.92336591  0.85229328    -0.23400
C1769       C  0.34379278  0.90909839  0.84643955     0.19600
C1770       C  0.31729738  0.89228182  0.86958861     0.24600
C1771       C  0.32851640  0.88955311  0.89918931    -0.23400
C1772       C  0.36690384  0.90457885  0.90535382     0.19500
F1773       F  0.37865975  0.90174089  0.93354320    -0.13300
F1774       F  0.43021986  0.93483812  0.88905613    -0.15700
F1775       F  0.28053884  0.87909788  0.86310153    -0.15700
F1776       F  0.33163126  0.91204209  0.81844929    -0.13300
C1777       C  0.56219828  0.90591775  0.65027946     0.24700
C1778       C  0.54098102  0.92334496  0.64402041    -0.23400
C1779       C  0.53259868  0.92650348  0.61339874     0.19600
C1780       C  0.54323954  0.91068935  0.58996944     0.24600
C1781       C  0.56307197  0.89194592  0.59646499    -0.23400
C1782       C  0.57352154  0.89095530  0.62680540     0.19500
F1783       F  0.59456986  0.87510065  0.63396454    -0.13300
F1784       F  0.57218929  0.90319049  0.67916703    -0.15700
F1785       F  0.53249753  0.91225949  0.56112667    -0.15700
F1786       F  0.51299565  0.94381887  0.60597638    -0.13300
C1787       C  0.54531116  0.93437386  0.88246136     0.24700
C1788       C  0.53988868  0.92099224  0.85220650    -0.23400
C1789       C  0.54556464  0.89072040  0.84551287     0.19600
C1790       C  0.55580528  0.87401783  0.86821067     0.24600
C1791       C  0.56019042  0.88653257  0.89865393    -0.23400
C1792       C  0.55510674  0.91724721  0.90539060     0.19500
F1793       F  0.55921149  0.93072081  0.93420579    -0.13300
F1794       F  0.54149869  0.96431437  0.89004932    -0.15700
F1795       F  0.56098513  0.84509728  0.86000143    -0.15700
F1796       F  0.54072342  0.87650946  0.81691230    -0.13300
C1797       C  0.60819731  0.07549031  0.61365980     0.24700
C1798       C  0.61984261  0.07917767  0.64432779    -0.23400
C1799       C  0.65862137  0.09810804  0.65062134     0.19600
C1800       C  0.68480204  0.11456484  0.62728117     0.24600
C1801       C  0.67309203  0.11217013  0.59689227    -0.23400
C1802       C  0.63456843  0.09140267  0.59023801     0.19500
F1803       F  0.62218142  0.08742746  0.56113562    -0.13300
F1804       F  0.57126109  0.05703859  0.60609209    -0.15700
F1805       F  0.72183999  0.13280321  0.63458380    -0.15700
F1806       F  0.67162338  0.10062432  0.67938095    -0.13300
C1807       C  0.65830744  0.09025489  0.84698889     0.24700
C1808       C  0.62023924  0.07843971  0.85243897    -0.23400
C1809       C  0.60939154  0.08359719  0.88164545     0.19600
C1810       C  0.63601068  0.10041985  0.90472581     0.24600
C1811       C  0.67407399  0.11289048  0.89904991    -0.23400
C1812       C  0.68493542  0.10743764  0.87001271     0.19500
F1813       F  0.72136351  0.11849549  0.86391935    -0.13300
F1814       F  0.66988971  0.08496659  0.81941783    -0.15700
F1815       F  0.62476692  0.10626427  0.93223658    -0.15700
F1816       F  0.57326421  0.07380922  0.88766281    -0.13300
C1817       C  0.44455004  0.12578580  0.62976811     0.24700
C1818       C  0.44319573  0.11509433  0.59903855    -0.23400
C1819       C  0.45089419  0.08618977  0.59208312     0.19600
C1820       C  0.46143432  0.06980521  0.61502091     0.24600
C1821       C  0.46413224  0.08161685  0.64559258    -0.23400
C1822       C  0.45466811  0.10924992  0.65259299     0.19500
F1823       F  0.45591011  0.12129513  0.68157589    -0.13300
F1824       F  0.43706266  0.15317797  0.63811264    -0.15700
F1825       F  0.46945487  0.04270321  0.60697927    -0.15700
F1826       F  0.44944903  0.07439337  0.56298762    -0.13300
C1827       C  0.46924940  0.07584877  0.88352656     0.24700
C1828       C  0.45924257  0.07728812  0.85302539    -0.23400
C1829       C  0.43744242  0.09416475  0.84685780     0.19600
C1830       C  0.42660659  0.10964260  0.87033321     0.24600
C1831       C  0.43850557  0.11012217  0.90039955    -0.23400
C1832       C  0.45969743  0.09280251  0.90678853     0.19500
F1833       F  0.47287437  0.09388147  0.93527975    -0.13300
F1834       F  0.48937128  0.05909486  0.89095697    -0.15700
F1835       F  0.40441946  0.12433760  0.86355027    -0.15700
F1836       F  0.42640546  0.09582188  0.81810165    -0.13300
loop_ 
_geom_bond_atom_site_label_1 
_geom_bond_atom_site_label_2 
_geom_bond_distance 
_geom_bond_site_symmetry_2 
_ccdc_geom_bond_type 
O1          Zr13   2.442       .  S
O1            C3   1.288       .  A
O2          Zr39   2.409       .  S
O2            C3   1.283       .  A
C3          C910   1.484       .  S
O4          Zr16   2.443       .  S
O4            C6   1.288       .  A
O5          Zr40   2.406   1_565  S
O5            C6   1.282       .  A
C6          C843   1.487       .  S
O7          Zr16   2.442       .  S
O7            C9   1.288       .  A
O8          Zr39   2.416   1_565  S
O8            C9   1.285       .  A
C9          C850   1.486       .  S
O10         Zr13   2.443       .  S
O10          C12   1.288       .  A
O11         Zr40   2.406       .  S
O11          C12   1.283       .  A
C12         C903   1.487       .  S
Zr13         O14   2.435       .  S
Zr13         O15   2.431       .  S
Zr13         O19   2.369       .  S
Zr13         O20   2.369       .  S
Zr13         O43   2.375       .  S
Zr13         O45   2.369       .  S
O14          H57   0.990       .  S
O15          H56   0.990       .  S
O15          H60   0.990       .  S
Zr16         O17   2.437       .  S
Zr16         O18   2.435       .  S
Zr16         O20   2.367   1_565  S
Zr16         O19   2.371   1_565  S
Zr16         O44   2.374       .  S
Zr16         O46   2.375       .  S
O17          H58   0.990       .  S
O17          H61   0.990       .  S
O18          H51   0.990       .  S
O19         Zr39   2.376       .  S
O20         Zr40   2.382       .  S
O20          H47   0.966       .  S
O21         Zr33   2.452       .  S
O21          C23   1.290       .  A
O22         Zr40   2.406       .  S
O22          C23   1.282       .  A
C23         C880   1.489       .  S
O24         Zr36   2.447       .  S
O24          C26   1.289       .  A
O25         Zr39   2.414   1_565  S
O25          C26   1.284       .  A
C26         C870   1.478       .  S
O27         Zr36   2.449       .  S
O27          C29   1.290       .  A
O28         Zr40   2.409   1_565  S
O28          C29   1.283       .  A
C29         C860   1.488       .  S
O30         Zr33   2.438       .  S
O30          C32   1.287       .  A
O31         Zr39   2.401       .  S
O31          C32   1.282       .  A
C32         C890   1.476       .  S
Zr33         O34   2.436       .  S
Zr33         O35   2.435       .  S
Zr33         O41   2.361   1_545  S
Zr33         O42   2.374   1_545  S
Zr33         O45   2.376       .  S
Zr33         O43   2.374       .  S
O34          H54   0.990       .  S
O34          H59   0.990       .  S
O35          H55   0.990       .  S
Zr36         O37   2.434       .  S
Zr36         O38   2.433       .  S
Zr36         O42   2.370       .  S
Zr36         O41   2.366       .  S
Zr36         O46   2.373       .  S
Zr36         O44   2.372       .  S
O37          H53   0.990       .  S
O38          H52   0.990       .  S
O38          H62   0.990       .  S
Zr39         O42   2.377   1_545  S
Zr39         O44   2.382   1_545  S
Zr39         O45   2.386       .  S
Zr40         O41   2.378   1_545  S
Zr40         O43   2.382       .  S
Zr40         O46   2.382   1_545  S
O41          H49   0.965       .  S
O44          H48   0.967       .  S
O45          H50   0.967       .  S
O63         Zr75   2.454       .  S
O63          C65   1.290       .  A
O64        Zr101   2.408       .  S
O64          C65   1.284       .  A
C65         C833   1.489       .  S
O66         Zr78   2.447       .  S
O66          C68   1.289       .  A
O67        Zr102   2.415   1_655  S
O67          C68   1.285       .  A
C68         C763   1.485       .  S
O69         Zr78   2.432       .  S
O69          C71   1.286       .  A
O70        Zr101   2.417   1_655  S
O70          C71   1.285       .  A
C71         C770   1.490       .  S
O72         Zr75   2.453       .  S
O72          C74   1.290       .  A
O73        Zr102   2.406       .  S
O73          C74   1.283       .  A
C74         C823   1.490       .  S
Zr75         O76   2.433       .  S
Zr75         O77   2.433       .  S
Zr75         O81   2.366       .  S
Zr75         O82   2.367       .  S
Zr75        O105   2.376       .  S
Zr75        O107   2.374       .  S
O76         H119   0.990       .  S
O77         H118   0.990       .  S
O77         H122   0.990       .  S
Zr78         O79   2.435       .  S
Zr78         O80   2.436       .  S
Zr78         O82   2.369   1_655  S
Zr78         O81   2.368   1_655  S
Zr78        O106   2.371       .  S
Zr78        O108   2.370       .  S
O79         H120   0.990       .  S
O79         H123   0.990       .  S
O80         H113   0.990       .  S
O81        Zr101   2.372       .  S
O82        Zr102   2.379       .  S
O82         H109   0.966       .  S
O83         Zr95   2.454       .  S
O83          C85   1.290       .  A
O84        Zr102   2.410       .  S
O84          C85   1.284       .  A
C85         C803   1.485       .  S
O86         Zr98   2.440       .  S
O86          C88   1.288       .  A
O87        Zr101   2.404   1_655  S
O87          C88   1.283       .  A
C88         C790   1.483       .  S
O89         Zr98   2.438       .  S
O89          C91   1.287       .  A
O90        Zr102   2.406   1_655  S
O90          C91   1.283       .  A
C91         C780   1.471       .  S
O92         Zr95   2.450       .  S
O92          C94   1.289       .  A
O93        Zr101   2.422       .  S
O93          C94   1.286       .  A
C94         C810   1.494       .  S
Zr95         O96   2.436       .  S
Zr95         O97   2.433       .  S
Zr95        O103   2.371   1_455  S
Zr95        O104   2.371   1_455  S
Zr95        O107   2.376       .  S
Zr95        O105   2.376       .  S
O96         H116   0.990       .  S
O96         H121   0.990       .  S
O97         H117   0.990       .  S
Zr98         O99   2.434       .  S
Zr98        O100   2.435       .  S
Zr98        O104   2.373       .  S
Zr98        O103   2.369       .  S
Zr98        O108   2.374       .  S
Zr98        O106   2.368       .  S
O99         H115   0.990       .  S
O100        H114   0.990       .  S
O100        H124   0.990       .  S
Zr101       O104   2.376   1_455  S
Zr101       O106   2.386   1_455  S
Zr101       O107   2.383       .  S
Zr102       O103   2.383   1_455  S
Zr102       O105   2.382       .  S
Zr102       O108   2.382   1_455  S
O103        H111   0.967       .  S
O106        H110   0.967       .  S
O107        H112   0.967       .  S
O125       Zr137   2.451       .  S
O125        C127   1.290       .  A
O126       Zr163   2.408       .  S
O126        C127   1.283       .  A
C127        C753   1.491       .  S
O128       Zr140   2.449       .  S
O128        C130   1.289       .  A
O129       Zr164   2.411       .  S
O129        C130   1.284       .  A
C130        C680   1.480       .  S
O131       Zr140   2.443       .  S
O131        C133   1.289       .  A
O132       Zr163   2.398       .  S
O132        C133   1.281       .  A
C133        C690   1.487       .  S
O134       Zr137   2.441       .  S
O134        C136   1.288       .  A
O135       Zr164   2.414       .  S
O135        C136   1.284       .  A
C136        C740   1.489       .  S
Zr137       O138   2.434       .  S
Zr137       O139   2.434       .  S
Zr137       O143   2.362       .  S
Zr137       O144   2.371       .  S
Zr137       O167   2.378       .  S
Zr137       O169   2.377       .  S
O138        H181   0.990       .  S
O139        H180   0.990       .  S
O139        H184   0.990       .  S
Zr140       O141   2.437       .  S
Zr140       O142   2.434       .  S
Zr140       O144   2.366       .  S
Zr140       O143   2.369       .  S
Zr140       O168   2.376       .  S
Zr140       O170   2.373       .  S
O141        H182   0.990       .  S
O141        H185   0.990       .  S
O142        H175   0.990       .  S
O143       Zr163   2.371       .  S
O144       Zr164   2.378       .  S
O144        H171   0.965       .  S
O145       Zr157   2.448       .  S
O145        C147   1.289       .  A
O146       Zr164   2.410       .  S
O146        C147   1.283       .  A
C147        C720   1.489       .  S
O148       Zr160   2.449       .  S
O148        C150   1.290       .  A
O149       Zr163   2.411       .  S
O149        C150   1.284       .  A
C150        C710   1.489       .  S
O151       Zr160   2.449       .  S
O151        C153   1.290       .  A
O152       Zr164   2.413       .  S
O152        C153   1.284       .  A
C153        C703   1.484       .  S
O154       Zr157   2.450       .  S
O154        C156   1.290       .  A
O155       Zr163   2.408       .  S
O155        C156   1.283       .  A
C156        C733   1.489       .  S
Zr157       O158   2.439       .  S
Zr157       O159   2.435       .  S
Zr157       O165   2.370       .  S
Zr157       O166   2.367       .  S
Zr157       O169   2.375       .  S
Zr157       O167   2.375       .  S
O158        H178   0.990       .  S
O158        H183   0.990       .  S
O159        H179   0.990       .  S
Zr160       O161   2.434       .  S
Zr160       O162   2.433       .  S
Zr160       O166   2.368       .  S
Zr160       O165   2.373       .  S
Zr160       O170   2.371       .  S
Zr160       O168   2.370       .  S
O161        H177   0.990       .  S
O162        H176   0.990       .  S
O162        H186   0.990       .  S
Zr163       O166   2.370       .  S
Zr163       O168   2.383       .  S
Zr163       O169   2.383       .  S
Zr164       O165   2.380       .  S
Zr164       O167   2.381       .  S
Zr164       O170   2.380       .  S
O165        H173   0.965       .  S
O168        H172   0.965       .  S
O169        H174   0.966       .  S
O187       Zr199   2.436       .  S
O187       C1107   1.286       .  A
O188      Zr1143   2.437   1_556  S
O188       C1107   1.287   1_556  A
C189       O1105   1.287       .  A
C189       O1106   1.288       .  A
C189        C663   1.472       .  S
O190       Zr202   2.441       .  S
O190        C192   1.287       .  A
O191       Zr226   2.435       .  S
O191        C192   1.288       .  A
C192        C713   1.484       .  S
O193       Zr202   2.428       .  S
O193        C195   1.286       .  A
O194       Zr225   2.425       .  S
O194        C195   1.287       .  A
C195        C773   1.485       .  S
O196       Zr199   2.429       .  S
O196       C1116   1.285       .  A
O197       Zr226   2.436       .  S
O197        C198   1.287       .  A
C198       O1114   1.287       .  A
C198        C670   1.472       .  S
Zr199       O201   2.435       .  S
Zr199      O1118   2.433   1_554  S
Zr199       O229   2.363       .  S
Zr199       O231   2.362       .  S
Zr199      O1123   2.366   1_554  S
Zr199      O1124   2.367   1_554  S
O200      Zr1117   2.434       .  S
O200        H243   0.990       .  S
O201        H242   0.990       .  S
O201        H246   0.990       .  S
Zr202       O203   2.437       .  S
Zr202       O204   2.436       .  S
Zr202       O206   2.368       .  S
Zr202       O205   2.378       .  S
Zr202       O230   2.373       .  S
Zr202       O232   2.369       .  S
O203        H244   0.990       .  S
O203        H247   0.990       .  S
O204        H237   0.990       .  S
O205       Zr225   2.379       .  S
O205      Zr1117   2.370       .  S
O206       Zr226   2.378       .  S
O206      Zr1117   2.361       .  S
O206        H233   0.965       .  S
O207       Zr219   2.434       .  S
O207        C209   1.287       .  A
O208      Zr1144   2.425       .  S
O208        C209   1.286       .  A
C209        C700   1.480       .  S
O210       Zr222   2.492       .  S
O210       C1130   1.297       .  A
O211       Zr225   2.418       .  S
O211       C1130   1.287       .  A
C212       O1128   1.297       .  A
C212       O1129   1.285       .  A
C212        C640   1.495       .  S
O213       Zr222   2.477       .  S
O213       C1133   1.295       .  A
O214       Zr226   2.411       .  S
O214       C1133   1.287       .  A
C215       O1131   1.295       .  A
C215       O1132   1.286       .  A
C215        C653   1.491       .  S
O216       Zr219   2.431       .  S
O216        C218   1.286       .  A
O217      Zr1143   2.425       .  S
O217        C218   1.287       .  A
C218        C760   1.477       .  S
Zr219       O220   2.436       .  S
Zr219       O221   2.434       .  S
Zr219       O227   2.362       .  S
Zr219       O228   2.368       .  S
Zr219       O231   2.372       .  S
Zr219       O229   2.366       .  S
O220        H240   0.990       .  S
O220        H245   0.990       .  S
O221        H241   0.990       .  S
Zr222       O224   2.433       .  S
Zr222      O1141   2.435       .  S
Zr222       O232   2.390       .  S
Zr222       O230   2.377       .  S
Zr222      O1146   2.381       .  S
Zr222      O1145   2.392       .  S
O223      Zr1140   2.433   1_554  S
O223        H239   0.990       .  S
O224        H238   0.990       .  S
O224        H248   0.990       .  S
Zr225      O1106   2.440       .  S
Zr225      O1135   2.440       .  S
Zr225       O230   2.393       .  S
Zr225      O1146   2.387       .  S
Zr225      O1149   2.378       .  S
Zr226      O1126   2.437       .  S
Zr226       O232   2.394       .  S
Zr226      O1145   2.396       .  S
Zr226      O1147   2.372       .  S
O227      Zr1140   2.388   1_554  S
O227      Zr1144   2.394       .  S
O227        H235   0.964       .  S
O228      Zr1140   2.384   1_554  S
O228      Zr1143   2.389       .  S
O229      Zr1144   2.375       .  S
O230        H234   0.967       .  S
O231      Zr1143   2.383       .  S
O231        H236   0.965       .  S
O249       Zr261   2.433       .  S
O249       C1169   1.287       .  A
O250      Zr1205   2.439       .  S
O250       C1169   1.288       .  A
C251       O1167   1.287       .  A
C251       O1168   1.289       .  A
C251        C630   1.479       .  S
O252       Zr264   2.434       .  S
O252        C254   1.287       .  A
O253       Zr288   2.414       .  S
O253        C254   1.285       .  A
C254        C793   1.478       .  S
O255       Zr264   2.438       .  S
O255        C257   1.287       .  A
O256       Zr287   2.419       .  S
O256        C257   1.286       .  A
C257        C893   1.475       .  S
O258       Zr261   2.440   1_554  S
O258       C1178   1.287       .  A
O259       Zr288   2.447       .  S
O259        C260   1.289       .  A
C260       O1176   1.286       .  A
C260        C660   1.474       .  S
Zr261       O263   2.433   1_556  S
Zr261      O1180   2.432       .  S
Zr261       O291   2.360   1_556  S
Zr261       O293   2.364   1_556  S
Zr261      O1185   2.365       .  S
Zr261      O1186   2.365       .  S
O262      Zr1179   2.434       .  S
O262        H305   0.990       .  S
O263        H304   0.990       .  S
O263        H308   0.990       .  S
Zr264       O265   2.435       .  S
Zr264       O266   2.435       .  S
Zr264       O268   2.374       .  S
Zr264       O267   2.368       .  S
Zr264       O292   2.368       .  S
Zr264       O294   2.367       .  S
O265        H306   0.990       .  S
O265        H309   0.990       .  S
O266        H299   0.990       .  S
O267       Zr287   2.377       .  S
O267      Zr1179   2.364       .  S
O268       Zr288   2.382       .  S
O268      Zr1179   2.360       .  S
O268        H295   0.965       .  S
O269       Zr281   2.424       .  S
O269        C271   1.285       .  A
O270      Zr1206   2.436       .  S
O270        C271   1.289       .  A
C271        C783   1.486       .  S
O272       Zr284   2.490       .  S
O272       C1192   1.297       .  A
O273       Zr287   2.422       .  S
O273       C1192   1.288       .  A
C274       O1190   1.296       .  A
C274       O1191   1.287       .  A
C274        C613   1.491       .  S
O275       Zr284   2.481       .  S
O275       C1195   1.295       .  A
O276       Zr288   2.419       .  S
O276       C1195   1.287       .  A
C277       O1193   1.295       .  A
C277       O1194   1.288       .  A
C277        C620   1.488       .  S
O278       Zr281   2.432       .  S
O278        C280   1.286       .  A
O279      Zr1205   2.430   1_554  S
O279        C280   1.287       .  A
C280        C883   1.484       .  S
Zr281       O282   2.434       .  S
Zr281       O283   2.435       .  S
Zr281       O289   2.373       .  S
Zr281       O290   2.366       .  S
Zr281       O293   2.371       .  S
Zr281       O291   2.370       .  S
O282        H302   0.990       .  S
O282        H307   0.990       .  S
O283        H303   0.990       .  S
Zr284       O286   2.433       .  S
Zr284      O1203   2.434       .  S
Zr284       O294   2.381       .  S
Zr284       O292   2.378       .  S
Zr284      O1208   2.383       .  S
Zr284      O1207   2.387       .  S
O285      Zr1202   2.432       .  S
O285        H301   0.990       .  S
O286        H300   0.990       .  S
O286        H310   0.990       .  S
Zr287      O1168   2.444       .  S
Zr287      O1197   2.429       .  S
Zr287       O292   2.391       .  S
Zr287      O1208   2.387       .  S
Zr287      O1211   2.378       .  S
Zr288      O1188   2.428       .  S
Zr288       O294   2.389       .  S
Zr288      O1207   2.391       .  S
Zr288      O1209   2.372       .  S
O289      Zr1202   2.386       .  S
O289      Zr1206   2.396       .  S
O289        H297   0.967       .  S
O290      Zr1202   2.379       .  S
O290      Zr1205   2.386   1_554  S
O291      Zr1206   2.378       .  S
O292        H296   0.964       .  S
O293      Zr1205   2.380   1_554  S
O293        H298   0.966       .  S
O311       Zr323   2.421       .  S
O311       C1231   1.285       .  A
O312      Zr1267   2.458       .  S
O312       C1231   1.291       .  A
C313       O1229   1.285       .  A
C313       O1230   1.290       .  A
C313        C600   1.481       .  S
O314       Zr326   2.444       .  S
O314        C316   1.288       .  A
O315       Zr350   2.424       .  S
O315        C316   1.287       .  A
C316        C830   1.482       .  S
O317       Zr326   2.452       .  S
O317        C319   1.290       .  A
O318       Zr349   2.410       .  S
O318        C319   1.284       .  A
C319        C853   1.479       .  S
O320       Zr323   2.424       .  S
O320       C1240   1.285       .  A
O321       Zr350   2.447       .  S
O321        C322   1.289       .  A
C322       O1238   1.286       .  A
C322        C590   1.480       .  S
Zr323       O325   2.434   1_556  S
Zr323      O1242   2.434       .  S
Zr323       O353   2.366   1_556  S
Zr323       O355   2.364   1_556  S
Zr323      O1247   2.356       .  S
Zr323      O1248   2.362       .  S
O324      Zr1241   2.434       .  S
O324        H367   0.990       .  S
O325        H366   0.990       .  S
O325        H370   0.990       .  S
Zr326       O327   2.437       .  S
Zr326       O328   2.434       .  S
Zr326       O330   2.377       .  S
Zr326       O329   2.367       .  S
Zr326       O354   2.367       .  S
Zr326       O356   2.374       .  S
O327        H368   0.990       .  S
O327        H371   0.990       .  S
O328        H361   0.990       .  S
O329       Zr349   2.377       .  S
O329      Zr1241   2.364       .  S
O330       Zr350   2.382       .  S
O330      Zr1241   2.354       .  S
O330        H357   0.966       .  S
O331       Zr343   2.411       .  S
O331        C333   1.282       .  A
O332      Zr1268   2.435   1_554  S
O332        C333   1.288       .  A
C333        C820   1.482       .  S
O334       Zr346   2.482       .  S
O334       C1254   1.295       .  A
O335       Zr349   2.417       .  S
O335       C1254   1.287       .  A
C336       O1252   1.294       .  A
C336       O1253   1.287       .  A
C336        C583   1.482       .  S
O337       Zr346   2.491       .  S
O337       C1257   1.298       .  A
O338       Zr350   2.411       .  S
O338       C1257   1.286       .  A
C339       O1255   1.296       .  A
C339       O1256   1.286       .  A
C339        C643   1.493       .  S
O340       Zr343   2.404       .  S
O340        C342   1.280       .  A
O341      Zr1267   2.444   1_554  S
O341        C342   1.290       .  A
C342        C840   1.487       .  S
Zr343       O344   2.437       .  S
Zr343       O345   2.435       .  S
Zr343       O351   2.362       .  S
Zr343       O352   2.364       .  S
Zr343       O355   2.372       .  S
Zr343       O353   2.365       .  S
O344        H364   0.990       .  S
O344        H369   0.990       .  S
O345        H365   0.990       .  S
Zr346       O348   2.433       .  S
Zr346      O1265   2.434       .  S
Zr346       O356   2.379       .  S
Zr346       O354   2.384       .  S
Zr346      O1270   2.386       .  S
Zr346      O1269   2.385       .  S
O347      Zr1264   2.435   1_554  S
O347        H363   0.990       .  S
O348        H362   0.990       .  S
O348        H372   0.990       .  S
Zr349      O1230   2.448       .  S
Zr349      O1259   2.421       .  S
Zr349       O354   2.395       .  S
Zr349      O1270   2.382       .  S
Zr349      O1273   2.381       .  S
Zr350      O1250   2.429       .  S
Zr350       O356   2.393       .  S
Zr350      O1269   2.390       .  S
Zr350      O1271   2.376       .  S
O351      Zr1264   2.381   1_554  S
O351      Zr1268   2.389   1_554  S
O351        H359   0.965       .  S
O352      Zr1264   2.384   1_554  S
O352      Zr1267   2.387   1_554  S
O353      Zr1268   2.372   1_554  S
O354        H358   0.967       .  S
O355      Zr1267   2.376   1_554  S
O355        H360   0.975       .  S
O373       Zr385   2.439       .  S
O373        C375   1.288       .  A
O374       Zr411   2.434       .  S
O374        C375   1.289       .  A
C375        C873   1.490       .  S
O376       Zr388   2.433   1_554  S
O376       C1296   1.286       .  A
O377       Zr412   2.452       .  S
O377        C378   1.290       .  A
C378       O1294   1.284       .  A
C378        C570   1.479       .  S
O379       Zr388   2.429       .  S
O379       C1299   1.286       .  A
O380      Zr1329   2.442       .  S
O380       C1299   1.289       .  A
C381       O1297   1.284       .  A
C381       O1298   1.290       .  A
C381        C603   1.481       .  S
O382       Zr385   2.434       .  S
O382        C384   1.287       .  A
O383       Zr412   2.422       .  S
O383        C384   1.286       .  A
C384        C730   1.481       .  S
Zr385       O386   2.435       .  S
Zr385       O387   2.435       .  S
Zr385       O391   2.365       .  S
Zr385       O392   2.375       .  S
Zr385       O415   2.371       .  S
Zr385       O417   2.366       .  S
O386        H429   0.990       .  S
O387        H428   0.990       .  S
O387        H432   0.990       .  S
Zr388       O390   2.434   1_556  S
Zr388      O1307   2.435       .  S
Zr388       O416   2.366   1_556  S
Zr388       O418   2.364   1_556  S
Zr388      O1310   2.360       .  S
Zr388      O1309   2.363       .  S
O389      Zr1306   2.435       .  S
O389        H430   0.990       .  S
O389        H433   0.990       .  S
O390        H423   0.990       .  S
O391       Zr411   2.371       .  S
O391      Zr1306   2.358       .  S
O392       Zr412   2.380       .  S
O392      Zr1306   2.365       .  S
O392        H419   0.967       .  S
O393       Zr405   2.487       .  S
O393       C1313   1.296       .  A
O394       Zr412   2.415       .  S
O394       C1313   1.287       .  A
C395       O1311   1.296       .  A
C395       O1312   1.288       .  A
C395        C650   1.493       .  S
O396       Zr408   2.416       .  S
O396        C398   1.284       .  A
O397      Zr1329   2.440   1_554  S
O397        C398   1.289       .  A
C398        C863   1.485       .  S
O399       Zr408   2.419       .  S
O399        C401   1.283       .  A
O400      Zr1330   2.440       .  S
O400        C401   1.289       .  A
C401        C723   1.493       .  S
O402       Zr405   2.488       .  S
O402       C1322   1.297       .  A
O403       Zr411   2.414       .  S
O403       C1322   1.287       .  A
C404       O1320   1.296   1_556  A
C404       O1321   1.287       .  A
C404        C610   1.491       .  S
Zr405       O407   2.435       .  S
Zr405      O1324   2.436       .  S
Zr405       O417   2.386       .  S
Zr405       O415   2.389       .  S
Zr405      O1331   2.386       .  S
Zr405      O1332   2.385       .  S
O406      Zr1323   2.434       .  S
O406        H426   0.990       .  S
O406        H431   0.990       .  S
O407        H427   0.990       .  S
Zr408       O409   2.432       .  S
Zr408       O410   2.436       .  S
Zr408       O414   2.365       .  S
Zr408       O413   2.362       .  S
Zr408       O418   2.366       .  S
Zr408       O416   2.367       .  S
O409        H425   0.990       .  S
O410        H424   0.990       .  S
O410        H434   0.990       .  S
Zr411      O1298   2.452       .  S
Zr411      O1315   2.440       .  S
Zr411       O417   2.396       .  S
Zr411      O1332   2.394       .  S
Zr411      O1334   2.378       .  S
Zr412      O1318   2.419       .  S
Zr412       O415   2.393       .  S
Zr412      O1331   2.396       .  S
Zr412      O1336   2.373       .  S
O413      Zr1323   2.383       .  S
O413      Zr1330   2.389       .  S
O413        H421   0.966       .  S
O414      Zr1323   2.385       .  S
O414      Zr1329   2.384   1_554  S
O416      Zr1329   2.378   1_554  S
O416        H420   0.965       .  S
O417        H422   0.966       .  S
O418      Zr1330   2.375       .  S
O435       Zr447   2.430       .  S
O435       C1355   1.286       .  A
O436      Zr1391   2.446       .  S
O436       C1355   1.289   1_556  A
C437       O1353   1.286       .  A
C437       O1354   1.290       .  A
C437        C593   1.478       .  S
O438       Zr450   2.422       .  S
O438        C440   1.284       .  A
O439       Zr474   2.438       .  S
O439        C440   1.290       .  A
C440        C750   1.484       .  S
O441       Zr450   2.431       .  S
O441        C443   1.286       .  A
O442       Zr473   2.424       .  S
O442        C443   1.286       .  A
C443        C813   1.480       .  S
O444       Zr447   2.431       .  S
O444       C1364   1.286       .  A
O445       Zr474   2.449       .  S
O445        C446   1.290       .  A
C446       O1362   1.287       .  A
C446        C573   1.482       .  S
Zr447       O449   2.438       .  S
Zr447      O1366   2.434   1_554  S
Zr447       O477   2.362       .  S
Zr447       O479   2.364       .  S
Zr447      O1371   2.364   1_554  S
Zr447      O1372   2.360   1_554  S
O448      Zr1365   2.434       .  S
O448        H491   0.990       .  S
O449        H490   0.990       .  S
O449        H494   0.990       .  S
Zr450       O451   2.435       .  S
Zr450       O452   2.435       .  S
Zr450       O454   2.377       .  S
Zr450       O453   2.362       .  S
Zr450       O478   2.362       .  S
Zr450       O480   2.372       .  S
O451        H492   0.990       .  S
O451        H495   0.990       .  S
O452        H485   0.990       .  S
O453       Zr473   2.369       .  S
O453      Zr1365   2.362       .  S
O454       Zr474   2.381       .  S
O454      Zr1365   2.368       .  S
O454        H481   0.966       .  S
O455       Zr467   2.422       .  S
O455        C457   1.284       .  A
O456      Zr1392   2.429       .  S
O456        C457   1.287       .  A
C457        C743   1.485       .  S
O458       Zr470   2.479       .  S
O458       C1378   1.295       .  A
O459       Zr473   2.424       .  S
O459       C1378   1.288       .  A
C460       O1376   1.295       .  A
C460       O1377   1.287       .  A
C460        C623   1.487       .  S
O461       Zr470   2.485       .  S
O461       C1381   1.296       .  A
O462       Zr474   2.417       .  S
O462       C1381   1.287       .  A
C463       O1379   1.296       .  A
C463       O1380   1.286       .  A
C463        C560   1.494       .  S
O464       Zr467   2.430       .  S
O464        C466   1.286       .  A
O465      Zr1391   2.427   1_554  S
O465        C466   1.287       .  A
C466        C800   1.478       .  S
Zr467       O468   2.435       .  S
Zr467       O469   2.433       .  S
Zr467       O475   2.365       .  S
Zr467       O476   2.367       .  S
Zr467       O479   2.364       .  S
Zr467       O477   2.370       .  S
O468        H488   0.990       .  S
O468        H493   0.990       .  S
O469        H489   0.990       .  S
Zr470       O472   2.435       .  S
Zr470      O1389   2.436       .  S
Zr470       O480   2.386       .  S
Zr470       O478   2.386       .  S
Zr470      O1394   2.385       .  S
Zr470      O1393   2.385       .  S
O471      Zr1388   2.434   1_554  S
O471        H487   0.990       .  S
O472        H486   0.990       .  S
O472        H496   0.990       .  S
Zr473      O1354   2.448       .  S
Zr473      O1383   2.429       .  S
Zr473       O478   2.393       .  S
Zr473      O1394   2.390       .  S
Zr473      O1397   2.383       .  S
Zr474      O1374   2.429       .  S
Zr474       O480   2.390       .  S
Zr474      O1393   2.396       .  S
Zr474      O1395   2.375       .  S
O475      Zr1388   2.382   1_554  S
O475      Zr1392   2.396       .  S
O475        H483   0.965       .  S
O476      Zr1388   2.390   1_554  S
O476      Zr1391   2.393   1_554  S
O477      Zr1392   2.376       .  S
O478        H482   0.966       .  S
O479      Zr1391   2.377   1_554  S
O479        H484   0.967       .  S
O497       Zr509   2.426       .  S
O497        C499   1.285       .  A
O498       Zr535   2.422       .  S
O498        C499   1.286       .  A
C499        C913   1.476       .  S
O500      Zr1430   2.425       .  S
O500        C502   1.285       .  A
O501       Zr536   2.446       .  S
O501        C502   1.289       .  A
C502        C673   1.474       .  S
O503       Zr512   2.427       .  S
O503       C1423   1.285       .  A
O504      Zr1453   2.448       .  S
O504       C1423   1.290       .  A
C505       O1421   1.285       .  A
C505       O1422   1.289       .  A
C505        C633   1.478       .  S
O506       Zr509   2.425       .  S
O506        C508   1.285       .  A
O507       Zr536   2.429       .  S
O507        C508   1.288       .  A
C508        C693   1.487       .  S
Zr509       O510   2.436       .  S
Zr509       O511   2.434       .  S
Zr509       O515   2.365       .  S
Zr509       O516   2.376       .  S
Zr509       O539   2.369       .  S
Zr509       O541   2.365       .  S
O510        H553   0.990       .  S
O511        H552   0.990       .  S
O511        H556   0.990       .  S
Zr512      O1418   2.433   1_556  S
Zr512       O514   2.434   1_556  S
Zr512      O1431   2.434       .  S
Zr512       O540   2.362   1_556  S
Zr512       O542   2.362   1_556  S
Zr512      O1434   2.362       .  S
Zr512      O1433   2.363       .  S
O513      Zr1430   2.435       .  S
O513        H554   0.990       .  S
O513        H557   0.990       .  S
O514        H547   0.990       .  S
O515       Zr535   2.374       .  S
O515      Zr1430   2.361       .  S
O516       Zr536   2.381       .  S
O516      Zr1430   2.357       .  S
O516        H543   0.966       .  S
O517       Zr529   2.494       .  S
O517       C1437   1.298       .  A
O518       Zr536   2.404       .  S
O518       C1437   1.284       .  A
C519       O1435   1.296       .  A
C519       O1436   1.288       .  A
C519        C563   1.492       .  S
O520       Zr532   2.414       .  S
O520        C522   1.283       .  A
O521      Zr1453   2.435   1_554  S
O521        C522   1.288       .  A
C522        C900   1.482       .  S
O523       Zr532   2.421       .  S
O523        C525   1.284       .  A
O524      Zr1454   2.416   1_554  S
O524        C525   1.285       .  A
C525        C683   1.468       .  S
O526       Zr529   2.487       .  S
O526       C1446   1.297       .  A
O527       Zr535   2.412       .  S
O527       C1446   1.286       .  A
C528       O1444   1.295       .  A
C528       O1445   1.287       .  A
C528        C580   1.484       .  S
Zr529       O531   2.435       .  S
Zr529      O1448   2.437       .  S
Zr529       O541   2.386       .  S
Zr529       O539   2.383       .  S
Zr529      O1455   2.384       .  S
Zr529      O1456   2.386       .  S
O530      Zr1447   2.436       .  S
O530        H550   0.990       .  S
O530        H555   0.990       .  S
O531        H551   0.990       .  S
Zr532       O533   2.435       .  S
Zr532       O534   2.434       .  S
Zr532       O538   2.361       .  S
Zr532       O537   2.360       .  S
Zr532       O542   2.364       .  S
Zr532       O540   2.371       .  S
O533        H549   0.990       .  S
O534        H548   0.990       .  S
O534        H558   0.990       .  S
Zr535      O1422   2.443       .  S
Zr535      O1439   2.428       .  S
Zr535       O541   2.396       .  S
Zr535      O1456   2.387       .  S
Zr535      O1458   2.376       .  S
Zr536      O1442   2.436       .  S
Zr536       O539   2.396       .  S
Zr536      O1455   2.391       .  S
Zr536      O1460   2.371       .  S
O537      Zr1447   2.384       .  S
O537      Zr1454   2.391   1_554  S
O537        H545   0.966       .  S
O538      Zr1447   2.382       .  S
O538      Zr1453   2.387   1_554  S
O540      Zr1453   2.377   1_554  S
O540        H544   0.966       .  S
O541        H546   0.968       .  S
O542      Zr1454   2.373   1_554  S
C559        C560   1.409       .  A
C559        C564   1.394       .  A
C559        F566   1.359       .  S
C560       C1479   1.411   1_554  A
C561        C562   1.413       .  A
C561       C1478   1.411       .  A
C561        F568   1.357       .  S
C562       C1481   1.409       .  A
C562        F567   1.357       .  S
C563        C564   1.407       .  A
C563       C1480   1.411   1_554  A
C564        F565   1.359       .  S
C569        C570   1.406       .  A
C569        C574   1.406       .  A
C569        F576   1.355       .  S
C570       C1489   1.406       .  A
C571        C572   1.395       .  A
C571       C1488   1.405       .  A
C571        F578   1.358       .  S
C572       C1491   1.404       .  A
C572        F577   1.359       .  S
C573        C574   1.407       .  A
C573       C1490   1.407       .  A
C574        F575   1.356       .  S
C579        C580   1.407       .  A
C579        C584   1.398   1_545  A
C579        F586   1.358       .  S
C580       C1499   1.408   1_554  A
C581        C582   1.413   1_545  A
C581       C1498   1.410       .  A
C581        F588   1.357       .  S
C582       C1501   1.411       .  A
C582        F587   1.357       .  S
C583        C584   1.406       .  A
C583       C1500   1.408   1_554  A
C584        F585   1.359       .  S
C589        C594   1.394       .  A
C589       C1508   1.403       .  A
C589        F596   1.359       .  S
C590        C591   1.405       .  A
C590       C1507   1.408       .  A
C591        C592   1.396       .  A
C591        F598   1.359       .  S
C592        C593   1.405       .  A
C592        F597   1.358       .  S
C593       C1512   1.407       .  A
C594       C1511   1.403       .  A
C594        F595   1.358       .  S
C599        C600   1.407       .  A
C599        C604   1.396       .  A
C599        F606   1.359       .  S
C600       C1519   1.407       .  A
C601        C602   1.408       .  A
C601       C1518   1.408   1_554  A
C601        F608   1.357       .  S
C602       C1521   1.407   1_554  A
C602        F607   1.356       .  S
C603        C604   1.407       .  A
C603       C1520   1.406       .  A
C604        F605   1.359       .  S
C609        C610   1.411   1_554  A
C609        C614   1.414   1_565  A
C609        F616   1.357       .  S
C610       C1529   1.408       .  A
C611        C612   1.397   1_565  A
C611       C1528   1.407       .  A
C611        F618   1.358       .  S
C612       C1531   1.409       .  A
C612        F617   1.359       .  S
C613        C614   1.411   1_556  A
C613       C1530   1.407       .  A
C614        F615   1.357       .  S
C619        C620   1.410   1_554  A
C619        C624   1.412   1_655  A
C619        F626   1.357       .  S
C620        C621   1.406       .  A
C621        C622   1.395   1_655  A
C621       F1546   1.359       .  S
C622        C623   1.407       .  A
C622       F1545   1.359       .  S
C623        C624   1.409   1_556  A
C624        F625   1.357       .  S
F627       C1540   1.359       .  S
F628       C1539   1.359       .  S
C629        C630   1.404       .  A
C629        C634   1.393       .  A
C629        F636   1.359       .  S
C630        C631   1.408       .  A
C631        C632   1.407       .  A
C631       F1556   1.356       .  S
C632        C633   1.407       .  A
C632       F1555   1.358       .  S
C633        C634   1.406       .  A
C634        F635   1.359       .  S
F637       C1550   1.357       .  S
F638       C1549   1.357       .  S
C639        C640   1.409       .  A
C639        C644   1.395   1_655  A
C639        F646   1.359       .  S
C640       C1559   1.411   1_554  A
C641        C642   1.415   1_655  A
C641       C1558   1.412       .  A
C641        F648   1.357       .  S
C642       C1561   1.410       .  A
C642        F647   1.357       .  S
C643        C644   1.408       .  A
C643       C1560   1.411   1_554  A
C644        F645   1.359       .  S
C649        C654   1.413       .  A
C649       C1568   1.411       .  A
C649        F656   1.357       .  S
C650        C651   1.407       .  A
C650       C1567   1.412   1_554  A
C651        C652   1.394       .  A
C651        F658   1.359       .  S
C652        C653   1.408       .  A
C652        F657   1.359       .  S
C653       C1572   1.411   1_554  A
C654       C1571   1.410       .  A
C654        F655   1.357       .  S
C659        C664   1.396       .  A
C659       C1578   1.403       .  A
C659        F666   1.358       .  S
C660        C661   1.406       .  A
C660       C1577   1.405       .  A
C661        C662   1.404       .  A
C661        F668   1.356       .  S
C662        C663   1.404       .  A
C662        F667   1.358       .  S
C663       C1582   1.404       .  A
C664       C1581   1.403       .  A
C664        F665   1.358       .  S
C669        C674   1.398       .  A
C669       C1588   1.404       .  A
C669        F676   1.359       .  S
C670        C671   1.403       .  A
C670       C1587   1.406       .  A
C671        C672   1.397       .  A
C671        F678   1.358       .  S
C672        C673   1.404       .  A
C672        F677   1.358       .  S
C673       C1592   1.407       .  A
C674       C1591   1.406       .  A
C674        F675   1.358       .  S
C679        C680   1.407       .  A
C679        C684   1.393       .  A
C679        F686   1.357       .  S
C680        C681   1.411       .  A
C681        C682   1.399       .  A
C681        F688   1.356       .  S
C682        C683   1.404       .  A
C682        F687   1.359       .  S
C683        C684   1.404       .  A
C684        F685   1.359       .  S
C689        C690   1.414       .  A
C689        C694   1.397       .  A
C689        F696   1.358       .  S
C690        C691   1.408       .  A
C691        C692   1.394       .  A
C691        F698   1.358       .  S
C692        C693   1.412       .  A
C692        F697   1.358       .  S
C693        C694   1.408       .  A
C694        F695   1.358       .  S
C699        C700   1.407       .  A
C699        C704   1.396       .  A
C699        F706   1.358       .  S
C700        C701   1.407       .  A
C701        C702   1.399       .  A
C701        F708   1.358       .  S
C702        C703   1.410       .  A
C702        F707   1.356       .  S
C703        C704   1.408       .  A
C704        F705   1.358       .  S
C709        C710   1.412       .  A
C709        C714   1.401       .  A
C709        F716   1.358       .  S
C710        C711   1.410       .  A
C711        C712   1.398       .  A
C711        F718   1.358       .  S
C712        C713   1.407       .  A
C712        F717   1.358       .  S
C713        C714   1.408       .  A
C714        F715   1.358       .  S
C719        C720   1.407       .  A
C719        C724   1.395       .  A
C719        F726   1.358       .  S
C720        C721   1.413       .  A
C721        C722   1.400       .  A
C721        F728   1.358       .  S
C722        C723   1.409       .  A
C722        F727   1.357       .  S
C723        C724   1.415       .  A
C724        F725   1.358       .  S
C729        C730   1.407       .  A
C729        C734   1.400       .  A
C729        F736   1.357       .  S
C730        C731   1.406       .  A
C731        C732   1.394       .  A
C731        F738   1.358       .  S
C732        C733   1.409       .  A
C732        F737   1.357       .  S
C733        C734   1.414       .  A
C734        F735   1.358       .  S
C739        C740   1.410       .  A
C739        C744   1.393       .  A
C739        F746   1.358       .  S
C740        C741   1.414       .  A
C741        C742   1.400       .  A
C741        F748   1.358       .  S
C742        C743   1.408       .  A
C742        F747   1.358       .  S
C743        C744   1.410       .  A
C744        F745   1.359       .  S
C749        C750   1.409       .  A
C749        C754   1.397       .  A
C749        F756   1.358       .  S
C750        C751   1.405       .  A
C751        C752   1.399       .  A
C751        F758   1.357       .  S
C752        C753   1.414       .  A
C752        F757   1.358       .  S
C753        C754   1.410       .  A
C754        F755   1.358       .  S
C759        C760   1.407       .  A
C759        C764   1.397       .  A
C759        F766   1.359       .  S
C760        C761   1.406       .  A
C761        C762   1.397       .  A
C761        F768   1.358       .  S
C762        C763   1.411       .  A
C762        F767   1.358       .  S
C763        C764   1.410       .  A
C764        F765   1.358       .  S
C769        C770   1.412       .  A
C769        C774   1.395       .  A
C769        F776   1.358       .  S
C770        C771   1.411       .  A
C771        C772   1.398       .  A
C771        F778   1.358       .  S
C772        C773   1.409       .  A
C772        F777   1.358       .  S
C773        C774   1.409       .  A
C774        F775   1.359       .  S
C779        C780   1.407       .  A
C779        C784   1.399       .  A
C779        F786   1.359       .  S
C780        C781   1.402       .  A
C781        C782   1.393       .  A
C781        F788   1.359       .  S
C782        C783   1.414       .  A
C782        F787   1.358       .  S
C783        C784   1.409       .  A
C784        F785   1.357       .  S
C789        C790   1.409       .  A
C789        C794   1.394       .  A
C789        F796   1.358       .  S
C790        C791   1.412       .  A
C791        C792   1.396       .  A
C791        F798   1.358       .  S
C792        C793   1.407       .  A
C792        F797   1.358       .  S
C793        C794   1.407       .  A
C794        F795   1.358       .  S
C799        C800   1.407       .  A
C799        C804   1.399       .  A
C799        F806   1.358       .  S
C800        C801   1.406       .  A
C801        C802   1.396       .  A
C801        F808   1.358       .  S
C802        C803   1.409       .  A
C802        F807   1.357       .  S
C803        C804   1.411       .  A
C804        F805   1.358       .  S
C809        C810   1.412       .  A
C809        C814   1.397       .  A
C809        F816   1.358       .  S
C810        C811   1.414       .  A
C811        C812   1.401       .  A
C811        F818   1.358       .  S
C812        C813   1.406       .  A
C812        F817   1.358       .  S
C813        C814   1.406       .  A
C814        F815   1.359       .  S
C819        C820   1.405       .  A
C819        C824   1.399       .  A
C819        F826   1.358       .  S
C820        C821   1.410       .  A
C821        C822   1.395       .  A
C821        F828   1.359       .  S
C822        C823   1.410       .  A
C822        F827   1.358       .  S
C823        C824   1.414       .  A
C824        F825   1.358       .  S
C829        C830   1.407       .  A
C829        C834   1.397       .  A
C829        F836   1.358       .  S
C830        C831   1.408       .  A
C831        C832   1.400       .  A
C831        F838   1.358       .  S
C832        C833   1.410       .  A
C832        F837   1.358       .  S
C833        C834   1.411       .  A
C834        F835   1.358       .  S
C839        C840   1.406       .  A
C839        C844   1.398       .  A
C839        F846   1.357       .  S
C840        C841   1.414       .  A
C841        C842   1.392       .  A
C841        F848   1.359       .  S
C842        C843   1.408       .  A
C842        F847   1.359       .  S
C843        C844   1.413       .  A
C844        F845   1.358       .  S
C849        C850   1.411       .  A
C849        C854   1.399       .  A
C849        F856   1.358       .  S
C850        C851   1.411       .  A
C851        C852   1.398       .  A
C851        F858   1.358       .  S
C852        C853   1.404       .  A
C852        F857   1.358       .  S
C853        C854   1.408       .  A
C854        F855   1.358       .  S
C859        C860   1.409       .  A
C859        C864   1.394       .  A
C859        F866   1.358       .  S
C860        C861   1.413       .  A
C861        C862   1.401       .  A
C861        F868   1.358       .  S
C862        C863   1.406       .  A
C862        F867   1.356       .  S
C863        C864   1.410       .  A
C864        F865   1.358       .  S
C869        C870   1.407       .  A
C869        C874   1.402       .  A
C869        F876   1.358       .  S
C870        C871   1.403       .  A
C871        C872   1.397       .  A
C871        F878   1.358       .  S
C872        C873   1.412       .  A
C872        F877   1.358       .  S
C873        C874   1.411       .  A
C874        F875   1.357       .  S
C879        C880   1.414       .  A
C879        C884   1.400       .  A
C879        F886   1.358       .  S
C880        C881   1.410       .  A
C881        C882   1.395       .  A
C881        F888   1.358       .  S
C882        C883   1.408       .  A
C882        F887   1.358       .  S
C883        C884   1.407       .  A
C884        F885   1.357       .  S
C889        C890   1.408       .  A
C889        C894   1.397       .  A
C889        F896   1.358       .  S
C890        C891   1.408       .  A
C891        C892   1.395       .  A
C891        F898   1.358       .  S
C892        C893   1.406       .  A
C892        F897   1.358       .  S
C893        C894   1.406       .  A
C894        F895   1.358       .  S
C899        C900   1.410       .  A
C899        C904   1.394       .  A
C899        F906   1.359       .  S
C900        C901   1.405       .  A
C901        C902   1.397       .  A
C901        F908   1.357       .  S
C902        C903   1.413       .  A
C902        F907   1.358       .  S
C903        C904   1.410       .  A
C904        F905   1.358       .  S
C909        C910   1.411       .  A
C909        C914   1.399       .  A
C909        F916   1.358       .  S
C910        C911   1.410       .  A
C911        C912   1.394       .  A
C911        F918   1.358       .  S
C912        C913   1.406       .  A
C912        F917   1.358       .  S
C913        C914   1.406       .  A
C914        F915   1.358       .  S
O919       Zr931   2.448       .  S
O919        C921   1.289       .  A
O920       Zr957   2.410       .  S
O920        C921   1.284       .  A
C921       C1828   1.490       .  S
O922       Zr934   2.440       .  S
O922        C924   1.288       .  A
O923       Zr958   2.411   1_565  S
O923        C924   1.284       .  A
C924       C1761   1.487       .  S
O925       Zr934   2.435       .  S
O925        C927   1.287       .  A
O926       Zr957   2.415   1_565  S
O926        C927   1.285       .  A
C927       C1768   1.485       .  S
O928       Zr931   2.445       .  S
O928        C930   1.289       .  A
O929       Zr958   2.406       .  S
O929        C930   1.282       .  A
C930       C1821   1.487       .  S
Zr931       O932   2.432       .  S
Zr931       O933   2.435       .  S
Zr931       O937   2.372       .  S
Zr931       O938   2.372       .  S
Zr931       O961   2.369       .  S
Zr931       O963   2.365       .  S
O932        H975   0.990       .  S
O933        H974   0.990       .  S
O933        H978   0.990       .  S
Zr934       O935   2.436       .  S
Zr934       O936   2.435       .  S
Zr934       O938   2.366   1_565  S
Zr934       O937   2.371   1_565  S
Zr934       O962   2.372       .  S
Zr934       O964   2.375       .  S
O935        H976   0.990       .  S
O935        H979   0.990       .  S
O936        H969   0.990       .  S
O937       Zr957   2.374       .  S
O938       Zr958   2.379       .  S
O938        H965   0.965       .  S
O939       Zr951   2.449       .  S
O939        C941   1.290       .  A
O940       Zr958   2.408       .  S
O940        C941   1.283       .  A
C941       C1798   1.488       .  S
O942       Zr954   2.449       .  S
O942        C944   1.290       .  A
O943       Zr957   2.411   1_565  S
O943        C944   1.284       .  A
C944       C1788   1.491       .  S
O945       Zr954   2.452       .  S
O945        C947   1.290       .  A
O946       Zr958   2.405   1_565  S
O946        C947   1.283       .  A
C947       C1778   1.486       .  S
O948       Zr951   2.435       .  S
O948        C950   1.287       .  A
O949       Zr957   2.412       .  S
O949        C950   1.284       .  A
C950       C1808   1.481       .  S
Zr951       O952   2.436       .  S
Zr951       O953   2.434       .  S
Zr951       O959   2.365   1_545  S
Zr951       O960   2.373   1_545  S
Zr951       O963   2.373       .  S
Zr951       O961   2.372       .  S
O952        H972   0.990       .  S
O952        H977   0.990       .  S
O953        H973   0.990       .  S
Zr954       O955   2.434       .  S
Zr954       O956   2.436       .  S
Zr954       O960   2.371       .  S
Zr954       O959   2.373       .  S
Zr954       O964   2.372       .  S
Zr954       O962   2.369       .  S
O955        H971   0.990       .  S
O956        H970   0.990       .  S
O956        H980   0.990       .  S
Zr957       O960   2.377   1_545  S
Zr957       O962   2.381   1_545  S
Zr957       O963   2.383       .  S
Zr958       O959   2.382   1_545  S
Zr958       O961   2.380       .  S
Zr958       O964   2.380   1_545  S
O959        H967   0.965       .  S
O962        H966   0.967       .  S
O963        H968   0.968       .  S
O981       Zr993   2.445       .  S
O981        C983   1.289       .  A
O982      Zr1019   2.415   1_455  S
O982        C983   1.285       .  A
C983       C1751   1.492       .  S
O984       Zr996   2.461       .  S
O984        C986   1.292       .  A
O985      Zr1020   2.405       .  S
O985        C986   1.282       .  A
C986       C1681   1.493       .  S
O987       Zr996   2.452       .  S
O987        C989   1.290       .  A
O988      Zr1019   2.408       .  S
O988        C989   1.283       .  A
C989       C1688   1.493       .  S
O990       Zr993   2.440       .  S
O990        C992   1.288       .  A
O991      Zr1020   2.408   1_455  S
O991        C992   1.283       .  A
C992       C1741   1.488       .  S
Zr993       O994   2.434       .  S
Zr993       O995   2.434       .  S
Zr993       O999   2.366   1_455  S
Zr993      O1000   2.368   1_455  S
Zr993      O1023   2.370       .  S
Zr993      O1025   2.372       .  S
O994       H1037   0.990       .  S
O995       H1036   0.990       .  S
O995       H1040   0.990       .  S
Zr996       O997   2.436       .  S
Zr996       O998   2.434       .  S
Zr996      O1000   2.367       .  S
Zr996       O999   2.365       .  S
Zr996      O1024   2.378       .  S
Zr996      O1026   2.377       .  S
O997       H1038   0.990       .  S
O997       H1041   0.989       .  S
O998       H1031   0.990       .  S
O999      Zr1019   2.368       .  S
O1000     Zr1020   2.378       .  S
O1000      H1027   0.966       .  S
O1001     Zr1013   2.443       .  S
O1001      C1003   1.288       .  A
O1002     Zr1020   2.410   1_455  S
O1002      C1003   1.283       .  A
C1003      C1721   1.487       .  S
O1004     Zr1016   2.447       .  S
O1004      C1006   1.289       .  A
O1005     Zr1019   2.401       .  S
O1005      C1006   1.282       .  A
C1006      C1708   1.485       .  S
O1007     Zr1016   2.452       .  S
O1007      C1009   1.290       .  A
O1008     Zr1020   2.399       .  S
O1008      C1009   1.281       .  A
C1009      C1698   1.482       .  S
O1010     Zr1013   2.443       .  S
O1010      C1012   1.289       .  A
O1011     Zr1019   2.407   1_455  S
O1011      C1012   1.283       .  A
C1012      C1728   1.489       .  S
Zr1013     O1014   2.437       .  S
Zr1013     O1015   2.433       .  S
Zr1013     O1021   2.370   1_455  S
Zr1013     O1022   2.369   1_455  S
Zr1013     O1025   2.373       .  S
Zr1013     O1023   2.370       .  S
O1014      H1034   0.990       .  S
O1014      H1039   0.990       .  S
O1015      H1035   0.990       .  S
Zr1016     O1017   2.435       .  S
Zr1016     O1018   2.435       .  S
Zr1016     O1022   2.371       .  S
Zr1016     O1021   2.369       .  S
Zr1016     O1026   2.375       .  S
Zr1016     O1024   2.378       .  S
O1017      H1033   0.990       .  S
O1018      H1032   0.990       .  S
O1018      H1042   0.990       .  S
Zr1019     O1022   2.374       .  S
Zr1019     O1024   2.386       .  S
Zr1019     O1025   2.379   1_655  S
Zr1020     O1021   2.380       .  S
Zr1020     O1023   2.375   1_655  S
Zr1020     O1026   2.382       .  S
O1021      H1029   0.966       .  S
O1024      H1028   0.967       .  S
O1025      H1030   0.966       .  S
O1043     Zr1055   2.438       .  S
O1043      C1045   1.287       .  A
O1044     Zr1081   2.400       .  S
O1044      C1045   1.282       .  A
C1045      C1671   1.485       .  S
O1046     Zr1058   2.445       .  S
O1046      C1048   1.289       .  A
O1047     Zr1082   2.409       .  S
O1047      C1048   1.283       .  A
C1048      C1598   1.488       .  S
O1049     Zr1058   2.431       .  S
O1049      C1051   1.286       .  A
O1050     Zr1081   2.411       .  S
O1050      C1051   1.284       .  A
C1051      C1608   1.484       .  S
O1052     Zr1055   2.448       .  S
O1052      C1054   1.289       .  A
O1053     Zr1082   2.400       .  S
O1053      C1054   1.281       .  A
C1054      C1658   1.487       .  S
Zr1055     O1056   2.434       .  S
Zr1055     O1057   2.435       .  S
Zr1055     O1061   2.371       .  S
Zr1055     O1062   2.372       .  S
Zr1055     O1085   2.369       .  S
Zr1055     O1087   2.369       .  S
O1056      H1099   0.990       .  S
O1057      H1098   0.991       .  S
O1057      H1102   0.990       .  S
Zr1058     O1059   2.437       .  S
Zr1058     O1060   2.436       .  S
Zr1058     O1062   2.365       .  S
Zr1058     O1061   2.369       .  S
Zr1058     O1086   2.376       .  S
Zr1058     O1088   2.371       .  S
O1059      H1100   0.990       .  S
O1059      H1103   0.990       .  S
O1060      H1093   0.990       .  S
O1061     Zr1081   2.372       .  S
O1062     Zr1082   2.378       .  S
O1062      H1089   0.965       .  S
O1063     Zr1075   2.444       .  S
O1063      C1065   1.288       .  A
O1064     Zr1082   2.409       .  S
O1064      C1065   1.283       .  A
C1065      C1638   1.488       .  S
O1066     Zr1078   2.465       .  S
O1066      C1068   1.293       .  A
O1067     Zr1081   2.400       .  S
O1067      C1068   1.281       .  A
C1068      C1628   1.493       .  S
O1069     Zr1078   2.459       .  S
O1069      C1071   1.293       .  A
O1070     Zr1082   2.400       .  S
O1070      C1071   1.281       .  A
C1071      C1621   1.481       .  S
O1072     Zr1075   2.430       .  S
O1072      C1074   1.286       .  A
O1073     Zr1081   2.414       .  S
O1073      C1074   1.285       .  A
C1074      C1651   1.487       .  S
Zr1075     O1076   2.434       .  S
Zr1075     O1077   2.435       .  S
Zr1075     O1083   2.365       .  S
Zr1075     O1084   2.370       .  S
Zr1075     O1087   2.376       .  S
Zr1075     O1085   2.372       .  S
O1076      H1096   0.990       .  S
O1076      H1101   0.990       .  S
O1077      H1097   0.990       .  S
Zr1078     O1079   2.433       .  S
Zr1078     O1080   2.438       .  S
Zr1078     O1084   2.366       .  S
Zr1078     O1083   2.370       .  S
Zr1078     O1088   2.376       .  S
Zr1078     O1086   2.373       .  S
O1079      H1095   0.990       .  S
O1080      H1094   0.990       .  S
O1080      H1104   0.990       .  S
Zr1081     O1084   2.370       .  S
Zr1081     O1086   2.381       .  S
Zr1081     O1087   2.384       .  S
Zr1082     O1083   2.378       .  S
Zr1082     O1085   2.380       .  S
Zr1082     O1088   2.380       .  S
O1083      H1091   0.965       .  S
O1086      H1090   0.965       .  S
O1087      H1092   0.967       .  S
O1105     Zr1117   2.436       .  S
C1107      C1581   1.473       .  S
O1108     Zr1120   2.433       .  S
O1108      C1110   1.286       .  A
O1109     Zr1144   2.427   1_556  S
O1109      C1110   1.287       .  A
C1110      C1631   1.486       .  S
O1111     Zr1120   2.427       .  S
O1111      C1113   1.286       .  A
O1112     Zr1143   2.423   1_556  S
O1112      C1113   1.286       .  A
C1113      C1691   1.485       .  S
O1114     Zr1117   2.438       .  S
O1115     Zr1144   2.434       .  S
O1115      C1116   1.287       .  A
C1116      C1588   1.472       .  S
Zr1117     O1119   2.436       .  S
Zr1117     O1147   2.363       .  S
Zr1117     O1149   2.362       .  S
O1118      H1161   0.990       .  S
O1119      H1160   0.990       .  S
O1119      H1164   0.990       .  S
Zr1120     O1121   2.438       .  S
Zr1120     O1122   2.435       .  S
Zr1120     O1124   2.372       .  S
Zr1120     O1123   2.370       .  S
Zr1120     O1148   2.373       .  S
Zr1120     O1150   2.370       .  S
O1121      H1162   0.990       .  S
O1121      H1165   0.990       .  S
O1122      H1155   0.990       .  S
O1123     Zr1143   2.378   1_556  S
O1124     Zr1144   2.383   1_556  S
O1124      H1151   0.966       .  S
O1125     Zr1137   2.423       .  S
O1125      C1127   1.284       .  A
O1126      C1127   1.288       .  A
C1127      C1618   1.490       .  S
O1128     Zr1140   2.494   1_554  S
O1129     Zr1143   2.409       .  S
C1130      C1558   1.495       .  S
O1131     Zr1140   2.483   1_554  S
O1132     Zr1144   2.413       .  S
C1133      C1571   1.487       .  S
O1134     Zr1137   2.420       .  S
O1134      C1136   1.284       .  A
O1135      C1136   1.289       .  A
C1136      C1678   1.486       .  S
Zr1137     O1138   2.435       .  S
Zr1137     O1139   2.434       .  S
Zr1137     O1145   2.362       .  S
Zr1137     O1146   2.367       .  S
Zr1137     O1149   2.365       .  S
Zr1137     O1147   2.367       .  S
O1138      H1158   0.990       .  S
O1138      H1163   0.990       .  S
O1139      H1159   0.990       .  S
Zr1140     O1142   2.435       .  S
Zr1140     O1150   2.384       .  S
Zr1140     O1148   2.383       .  S
O1141      H1157   0.990       .  S
O1142      H1156   0.990       .  S
O1142      H1166   0.990       .  S
Zr1143     O1148   2.394   1_554  S
Zr1144     O1150   2.388   1_554  S
O1145      H1153   0.964       .  S
O1148      H1152   0.968       .  S
O1149      H1154   0.965       .  S
O1167     Zr1179   2.428       .  S
C1169      C1548   1.477       .  S
O1170     Zr1182   2.421       .  S
O1170      C1172   1.284       .  A
O1171     Zr1206   2.432   1_556  S
O1171      C1172   1.288       .  A
C1172      C1711   1.480       .  S
O1173     Zr1182   2.428       .  S
O1173      C1175   1.286       .  A
O1174     Zr1205   2.428       .  S
O1174      C1175   1.287       .  A
C1175      C1811   1.476       .  S
O1176     Zr1179   2.430       .  S
O1177     Zr1206   2.438   1_556  S
O1177      C1178   1.288   1_556  A
C1178      C1578   1.474       .  S
Zr1179     O1181   2.434       .  S
Zr1179     O1209   2.366       .  S
Zr1179     O1211   2.360       .  S
O1180      H1223   0.990       .  S
O1181      H1222   0.990       .  S
O1181      H1226   0.990       .  S
Zr1182     O1183   2.437       .  S
Zr1182     O1184   2.434       .  S
Zr1182     O1186   2.373       .  S
Zr1182     O1185   2.367       .  S
Zr1182     O1210   2.362       .  S
Zr1182     O1212   2.367       .  S
O1183      H1224   0.990       .  S
O1183      H1227   0.990       .  S
O1184      H1217   0.990       .  S
O1185     Zr1205   2.375       .  S
O1186     Zr1206   2.383   1_556  S
O1186      H1213   0.965       .  S
O1187     Zr1199   2.421       .  S
O1187      C1189   1.284       .  A
O1188      C1189   1.287       .  A
C1189      C1701   1.473       .  S
O1190     Zr1202   2.482   1_556  S
O1191     Zr1205   2.416       .  S
C1192      C1531   1.496       .  S
O1193     Zr1202   2.479   1_556  S
O1194     Zr1206   2.419   1_556  S
C1195      C1538   1.487       .  S
O1196     Zr1199   2.415       .  S
O1196      C1198   1.284       .  A
O1197      C1198   1.288       .  A
C1198      C1801   1.479       .  S
Zr1199     O1200   2.434       .  S
Zr1199     O1201   2.437       .  S
Zr1199     O1207   2.365       .  S
Zr1199     O1208   2.369       .  S
Zr1199     O1211   2.371       .  S
Zr1199     O1209   2.367       .  S
O1200      H1220   0.990       .  S
O1200      H1225   0.990       .  S
O1201      H1221   0.990       .  S
Zr1202     O1204   2.435   1_554  S
Zr1202     O1212   2.383   1_554  S
Zr1202     O1210   2.384   1_554  S
O1203      H1219   0.990       .  S
O1204      H1218   0.990       .  S
O1204      H1228   0.990       .  S
Zr1205     O1210   2.389       .  S
Zr1206     O1212   2.387   1_554  S
O1207      H1215   0.967       .  S
O1210      H1214   0.964       .  S
O1211      H1216   0.966       .  S
O1229     Zr1241   2.421       .  S
C1231      C1518   1.483       .  S
O1232     Zr1244   2.446       .  S
O1232      C1234   1.289       .  A
O1233     Zr1268   2.418       .  S
O1233      C1234   1.286       .  A
C1234      C1748   1.486       .  S
O1235     Zr1244   2.431       .  S
O1235      C1237   1.286       .  A
O1236     Zr1267   2.424       .  S
O1236      C1237   1.287       .  A
C1237      C1771   1.476       .  S
O1238     Zr1241   2.430       .  S
O1239     Zr1268   2.446       .  S
O1239      C1240   1.289       .  A
C1240      C1508   1.474   1_556  S
Zr1241     O1243   2.434       .  S
Zr1241     O1271   2.363       .  S
Zr1241     O1273   2.370       .  S
O1242      H1285   0.990       .  S
O1243      H1284   0.990       .  S
O1243      H1288   0.990       .  S
Zr1244     O1245   2.439       .  S
Zr1244     O1246   2.436       .  S
Zr1244     O1248   2.368       .  S
Zr1244     O1247   2.368       .  S
Zr1244     O1272   2.376       .  S
Zr1244     O1274   2.371       .  S
O1245      H1286   0.990       .  S
O1245      H1289   0.990       .  S
O1246      H1279   0.990       .  S
O1247     Zr1267   2.375       .  S
O1248     Zr1268   2.381       .  S
O1248      H1275   0.964       .  S
O1249     Zr1261   2.421       .  S
O1249      C1251   1.285       .  A
O1250      C1251   1.287       .  A
C1251      C1738   1.485       .  S
O1252     Zr1264   2.474   1_554  S
O1253     Zr1267   2.416   1_554  S
C1254      C1501   1.493       .  S
O1255     Zr1264   2.487   1_554  S
O1256     Zr1268   2.413   1_554  S
C1257      C1561   1.493       .  S
O1258     Zr1261   2.426       .  S
O1258      C1260   1.285       .  A
O1259      C1260   1.285       .  A
C1260      C1758   1.480       .  S
Zr1261     O1262   2.434       .  S
Zr1261     O1263   2.437       .  S
Zr1261     O1269   2.367       .  S
Zr1261     O1270   2.364       .  S
Zr1261     O1273   2.369       .  S
Zr1261     O1271   2.370       .  S
O1262      H1282   0.990       .  S
O1262      H1287   0.990       .  S
O1263      H1283   0.990       .  S
Zr1264     O1266   2.434       .  S
Zr1264     O1274   2.382       .  S
Zr1264     O1272   2.386       .  S
O1265      H1281   0.990       .  S
O1266      H1280   0.990       .  S
O1266      H1290   0.990       .  S
Zr1267     O1272   2.405       .  S
Zr1268     O1274   2.393       .  S
O1269      H1277   0.966       .  S
O1272      H1276   0.963       .  S
O1273      H1278   0.966       .  S
O1291     Zr1303   2.433       .  S
O1291      C1293   1.286       .  A
O1292     Zr1329   2.424       .  S
O1292      C1293   1.286       .  A
C1293      C1791   1.492       .  S
O1294     Zr1306   2.421       .  S
O1295     Zr1330   2.444       .  S
O1295      C1296   1.289       .  A
C1296      C1488   1.476       .  S
O1297     Zr1306   2.420       .  S
C1299      C1521   1.479       .  S
O1300     Zr1303   2.427       .  S
O1300      C1302   1.286       .  A
O1301     Zr1330   2.429   1_556  S
O1301      C1302   1.287       .  A
C1302      C1648   1.483       .  S
Zr1303     O1304   2.434       .  S
Zr1303     O1305   2.436       .  S
Zr1303     O1309   2.366       .  S
Zr1303     O1310   2.377       .  S
Zr1303     O1333   2.368       .  S
Zr1303     O1335   2.358       .  S
O1304      H1347   0.990       .  S
O1305      H1346   0.990       .  S
O1305      H1350   0.990       .  S
Zr1306     O1308   2.434       .  S
Zr1306     O1334   2.358       .  S
Zr1306     O1336   2.362       .  S
O1307      H1348   0.990       .  S
O1307      H1351   0.990       .  S
O1308      H1341   0.990       .  S
O1309     Zr1329   2.380       .  S
O1310     Zr1330   2.386   1_556  S
O1310      H1337   0.965       .  S
O1311     Zr1323   2.486       .  S
O1312     Zr1330   2.418       .  S
C1313      C1568   1.491       .  S
O1314     Zr1326   2.422       .  S
O1314      C1316   1.285       .  A
O1315      C1316   1.290       .  A
C1316      C1781   1.484       .  S
O1317     Zr1326   2.441       .  S
O1317      C1319   1.287       .  A
O1318      C1319   1.285       .  A
C1319      C1641   1.481       .  S
O1320     Zr1323   2.485       .  S
O1321     Zr1329   2.414       .  S
C1322      C1528   1.492       .  S
Zr1323     O1325   2.434   1_554  S
Zr1323     O1335   2.383   1_554  S
Zr1323     O1333   2.386   1_554  S
O1324      H1344   0.990       .  S
O1324      H1349   0.990       .  S
O1325      H1345   0.990       .  S
Zr1326     O1327   2.437       .  S
Zr1326     O1328   2.437       .  S
Zr1326     O1332   2.371       .  S
Zr1326     O1331   2.361       .  S
Zr1326     O1336   2.365       .  S
Zr1326     O1334   2.378       .  S
O1327      H1343   0.990       .  S
O1328      H1342   0.990       .  S
O1328      H1352   0.990       .  S
Zr1329     O1335   2.394       .  S
Zr1330     O1333   2.395   1_554  S
O1331      H1339   0.966       .  S
O1334      H1338   0.965       .  S
O1335      H1340   0.966       .  S
O1353     Zr1365   2.431       .  S
C1355      C1511   1.475       .  S
O1356     Zr1368   2.421       .  S
O1356      C1358   1.284       .  A
O1357     Zr1392   2.431   1_556  S
O1357      C1358   1.287       .  A
C1358      C1668   1.482       .  S
O1359     Zr1368   2.423       .  S
O1359      C1361   1.284       .  A
O1360     Zr1391   2.422       .  S
O1360      C1361   1.285       .  A
C1361      C1731   1.485       .  S
O1362     Zr1365   2.433       .  S
O1363     Zr1392   2.439       .  S
O1363      C1364   1.287       .  A
C1364      C1491   1.475       .  S
Zr1365     O1367   2.438       .  S
Zr1365     O1395   2.361       .  S
Zr1365     O1397   2.366       .  S
O1366      H1409   0.990       .  S
O1367      H1408   0.990       .  S
O1367      H1412   0.990       .  S
Zr1368     O1369   2.439       .  S
Zr1368     O1370   2.434       .  S
Zr1368     O1372   2.371       .  S
Zr1368     O1371   2.369       .  S
Zr1368     O1396   2.360       .  S
Zr1368     O1398   2.372       .  S
O1369      H1410   0.990       .  S
O1369      H1413   0.990       .  S
O1370      H1403   0.990       .  S
O1371     Zr1391   2.375       .  S
O1372     Zr1392   2.379   1_556  S
O1372      H1399   0.965       .  S
O1373     Zr1385   2.429       .  S
O1373      C1375   1.286       .  A
O1374      C1375   1.287       .  A
C1375      C1661   1.485       .  S
O1376     Zr1388   2.480       .  S
O1377     Zr1391   2.414       .  S
C1378      C1541   1.488       .  S
O1379     Zr1388   2.491   1_554  S
O1380     Zr1392   2.408       .  S
C1381      C1478   1.492       .  S
O1382     Zr1385   2.412       .  S
O1382      C1384   1.282       .  A
O1383      C1384   1.287       .  A
C1384      C1718   1.480       .  S
Zr1385     O1386   2.434       .  S
Zr1385     O1387   2.434       .  S
Zr1385     O1393   2.357       .  S
Zr1385     O1394   2.364       .  S
Zr1385     O1397   2.374       .  S
Zr1385     O1395   2.365       .  S
O1386      H1406   0.990       .  S
O1386      H1411   0.990       .  S
O1387      H1407   0.990       .  S
Zr1388     O1390   2.435       .  S
Zr1388     O1398   2.384       .  S
Zr1388     O1396   2.387       .  S
O1389      H1405   0.990       .  S
O1390      H1404   0.990       .  S
O1390      H1414   0.990       .  S
Zr1391     O1396   2.396       .  S
Zr1392     O1398   2.390   1_554  S
O1393      H1401   0.965       .  S
O1396      H1400   0.966       .  S
O1397      H1402   0.966       .  S
O1415     Zr1427   2.424       .  S
O1415      C1417   1.285       .  A
O1416     Zr1453   2.434       .  S
O1416      C1417   1.289       .  A
C1417      C1831   1.480       .  S
O1418      C1420   1.286       .  A
O1419     Zr1454   2.446       .  S
O1419      C1420   1.289   1_556  A
C1420      C1591   1.477       .  S
O1421     Zr1430   2.422       .  S
C1423      C1551   1.478       .  S
O1424     Zr1427   2.431       .  S
O1424      C1426   1.286       .  A
O1425     Zr1454   2.414       .  S
O1425      C1426   1.285       .  A
C1426      C1611   1.476       .  S
Zr1427     O1428   2.433       .  S
Zr1427     O1429   2.436       .  S
Zr1427     O1433   2.373       .  S
Zr1427     O1434   2.376       .  S
Zr1427     O1457   2.362       .  S
Zr1427     O1459   2.369       .  S
O1428      H1471   0.990       .  S
O1429      H1470   0.990       .  S
O1429      H1474   0.990       .  S
Zr1430     O1432   2.436       .  S
Zr1430     O1458   2.366       .  S
Zr1430     O1460   2.365       .  S
O1431      H1472   0.990       .  S
O1431      H1475   0.990       .  S
O1432      H1465   0.990       .  S
O1433     Zr1453   2.378       .  S
O1434     Zr1454   2.378       .  S
O1434      H1461   0.968       .  S
O1435     Zr1447   2.487       .  S
O1436     Zr1454   2.417   1_554  S
C1437      C1481   1.491       .  S
O1438     Zr1450   2.412       .  S
O1438      C1440   1.282       .  A
O1439      C1440   1.287       .  A
C1440      C1818   1.486       .  S
O1441     Zr1450   2.411       .  S
O1441      C1443   1.282       .  A
O1442      C1443   1.288       .  A
C1443      C1601   1.479       .  S
O1444     Zr1447   2.479       .  S
O1445     Zr1453   2.417   1_554  S
C1446      C1498   1.493       .  S
Zr1447     O1449   2.435   1_554  S
Zr1447     O1459   2.384   1_554  S
Zr1447     O1457   2.382   1_554  S
O1448      H1468   0.990       .  S
O1448      H1473   0.990       .  S
O1449      H1469   0.990       .  S
Zr1450     O1451   2.435       .  S
Zr1450     O1452   2.436       .  S
Zr1450     O1456   2.365       .  S
Zr1450     O1455   2.364       .  S
Zr1450     O1460   2.364       .  S
Zr1450     O1458   2.364       .  S
O1451      H1467   0.990       .  S
O1452      H1466   0.990       .  S
O1452      H1476   0.990       .  S
Zr1453     O1459   2.398       .  S
Zr1454     O1457   2.387       .  S
O1455      H1463   0.966       .  S
O1458      H1462   0.966       .  S
O1459      H1464   0.968       .  S
C1477      C1478   1.409       .  A
C1477      C1482   1.395       .  A
C1477      F1484   1.359       .  S
C1479      C1480   1.415       .  A
C1479      F1486   1.357       .  S
C1480      F1485   1.357       .  S
C1481      C1482   1.409       .  A
C1482      F1483   1.359       .  S
C1487      C1488   1.407   1_556  A
C1487      C1492   1.407       .  A
C1487      F1494   1.357       .  S
C1489      C1490   1.398       .  A
C1489      F1496   1.359       .  S
C1490      F1495   1.358       .  S
C1491      C1492   1.407   1_554  A
C1492      F1493   1.357       .  S
C1497      C1498   1.409       .  A
C1497      C1502   1.396   1_545  A
C1497      F1504   1.359       .  S
C1499      C1500   1.409   1_545  A
C1499      F1506   1.357       .  S
C1500      F1505   1.357       .  S
C1501      C1502   1.408       .  A
C1502      F1503   1.359       .  S
C1507      C1512   1.408       .  A
C1507      F1514   1.357       .  S
C1508      C1509   1.408   1_554  A
C1509      C1510   1.408       .  A
C1509      F1516   1.357       .  S
C1510      C1511   1.407   1_556  A
C1510      F1515   1.357       .  S
C1512      F1513   1.357       .  S
C1517      C1518   1.408       .  A
C1517      C1522   1.395       .  A
C1517      F1524   1.358       .  S
C1519      C1520   1.406       .  A
C1519      F1526   1.356       .  S
C1520      F1525   1.355       .  S
C1521      C1522   1.404       .  A
C1522      F1523   1.359       .  S
C1527      C1528   1.409       .  A
C1527      C1532   1.414   1_565  A
C1527      F1534   1.357       .  S
C1529      C1530   1.394   1_565  A
C1529      F1536   1.359       .  S
C1530      F1535   1.359       .  S
C1531      C1532   1.412       .  A
C1532      F1533   1.357       .  S
C1537      C1538   1.409       .  A
C1537      C1542   1.411   1_655  A
C1537      F1544   1.357       .  S
C1538      C1539   1.407       .  A
C1539      C1540   1.399   1_655  A
C1540      C1541   1.407       .  A
C1541      C1542   1.409       .  A
C1542      F1543   1.357       .  S
C1547      C1548   1.404       .  A
C1547      C1552   1.396       .  A
C1547      F1554   1.358       .  S
C1548      C1549   1.407   1_556  A
C1549      C1550   1.407       .  A
C1550      C1551   1.407   1_554  A
C1551      C1552   1.406       .  A
C1552      F1553   1.358       .  S
C1557      C1558   1.408       .  A
C1557      C1562   1.398   1_655  A
C1557      F1564   1.359       .  S
C1559      C1560   1.415   1_655  A
C1559      F1566   1.357       .  S
C1560      F1565   1.357       .  S
C1561      C1562   1.408       .  A
C1562      F1563   1.359       .  S
C1567      C1572   1.414       .  A
C1567      F1574   1.357       .  S
C1568      C1569   1.408       .  A
C1569      C1570   1.393       .  A
C1569      F1576   1.359       .  S
C1570      C1571   1.406       .  A
C1570      F1575   1.359       .  S
C1572      F1573   1.357       .  S
C1577      C1582   1.398       .  A
C1577      F1584   1.358       .  S
C1578      C1579   1.407   1_554  A
C1579      C1580   1.407       .  A
C1579      F1586   1.357       .  S
C1580      C1581   1.407   1_556  A
C1580      F1585   1.358       .  S
C1582      F1583   1.358       .  S
C1587      C1592   1.405       .  A
C1587      F1594   1.358       .  S
C1588      C1589   1.405   1_554  A
C1589      C1590   1.404       .  A
C1589      F1596   1.357       .  S
C1590      C1591   1.406   1_556  A
C1590      F1595   1.356       .  S
C1592      F1593   1.357       .  S
C1597      C1598   1.409       .  A
C1597      C1602   1.394       .  A
C1597      F1604   1.358       .  S
C1598      C1599   1.415       .  A
C1599      C1600   1.399       .  A
C1599      F1606   1.358       .  S
C1600      C1601   1.404       .  A
C1600      F1605   1.357       .  S
C1601      C1602   1.409       .  A
C1602      F1603   1.359       .  S
C1607      C1608   1.411       .  A
C1607      C1612   1.395       .  A
C1607      F1614   1.358       .  S
C1608      C1609   1.412       .  A
C1609      C1610   1.395       .  A
C1609      F1616   1.358       .  S
C1610      C1611   1.406       .  A
C1610      F1615   1.358       .  S
C1611      C1612   1.407       .  A
C1612      F1613   1.358       .  S
C1617      C1618   1.414       .  A
C1617      C1622   1.392       .  A
C1617      F1624   1.357       .  S
C1618      C1619   1.410       .  A
C1619      C1620   1.403       .  A
C1619      F1626   1.358       .  S
C1620      C1621   1.412       .  A
C1620      F1625   1.359       .  S
C1621      C1622   1.401       .  A
C1622      F1623   1.358       .  S
C1627      C1628   1.416       .  A
C1627      C1632   1.401       .  A
C1627      F1634   1.358       .  S
C1628      C1629   1.409       .  A
C1629      C1630   1.395       .  A
C1629      F1636   1.357       .  S
C1630      C1631   1.409       .  A
C1630      F1635   1.358       .  S
C1631      C1632   1.408       .  A
C1632      F1633   1.358       .  S
C1637      C1638   1.411       .  A
C1637      C1642   1.396       .  A
C1637      F1644   1.358       .  S
C1638      C1639   1.413       .  A
C1639      C1640   1.399       .  A
C1639      F1646   1.358       .  S
C1640      C1641   1.407       .  A
C1640      F1645   1.358       .  S
C1641      C1642   1.407       .  A
C1642      F1643   1.358       .  S
C1647      C1648   1.407       .  A
C1647      C1652   1.397       .  A
C1647      F1654   1.357       .  S
C1648      C1649   1.409       .  A
C1649      C1650   1.394       .  A
C1649      F1656   1.359       .  S
C1650      C1651   1.411       .  A
C1650      F1655   1.358       .  S
C1651      C1652   1.412       .  A
C1652      F1653   1.358       .  S
C1657      C1658   1.408       .  A
C1657      C1662   1.394       .  A
C1657      F1664   1.358       .  S
C1658      C1659   1.414       .  A
C1659      C1660   1.400       .  A
C1659      F1666   1.358       .  S
C1660      C1661   1.408       .  A
C1660      F1665   1.358       .  S
C1661      C1662   1.410       .  A
C1662      F1663   1.358       .  S
C1667      C1668   1.410       .  A
C1667      C1672   1.393       .  A
C1667      F1674   1.359       .  S
C1668      C1669   1.407       .  A
C1669      C1670   1.397       .  A
C1669      F1676   1.357       .  S
C1670      C1671   1.412       .  A
C1670      F1675   1.358       .  S
C1671      C1672   1.409       .  A
C1672      F1673   1.358       .  S
C1677      C1678   1.410       .  A
C1677      C1682   1.394       .  A
C1677      F1684   1.358       .  S
C1678      C1679   1.407       .  A
C1679      C1680   1.402       .  A
C1679      F1686   1.358       .  S
C1680      C1681   1.416       .  A
C1680      F1685   1.358       .  S
C1681      C1682   1.408       .  A
C1682      F1683   1.357       .  S
C1687      C1688   1.410       .  A
C1687      C1692   1.393       .  A
C1687      F1694   1.358       .  S
C1688      C1689   1.416       .  A
C1689      C1690   1.402       .  A
C1689      F1696   1.358       .  S
C1690      C1691   1.408       .  A
C1690      F1695   1.358       .  S
C1691      C1692   1.409       .  A
C1692      F1693   1.358       .  S
C1697      C1698   1.413       .  A
C1697      C1702   1.397       .  A
C1697      F1704   1.358       .  S
C1698      C1699   1.408       .  A
C1699      C1700   1.395       .  A
C1699      F1706   1.358       .  S
C1700      C1701   1.407       .  A
C1700      F1705   1.358       .  S
C1701      C1702   1.404       .  A
C1702      F1703   1.358       .  S
C1707      C1708   1.409       .  A
C1707      C1712   1.396       .  A
C1707      F1714   1.358       .  S
C1708      C1709   1.412       .  A
C1709      C1710   1.396       .  A
C1709      F1716   1.358       .  S
C1710      C1711   1.405       .  A
C1710      F1715   1.357       .  S
C1711      C1712   1.410       .  A
C1712      F1713   1.359       .  S
C1717      C1718   1.406       .  A
C1717      C1722   1.399       .  A
C1717      F1724   1.358       .  S
C1718      C1719   1.409       .  A
C1719      C1720   1.392       .  A
C1719      F1726   1.359       .  S
C1720      C1721   1.410       .  A
C1720      F1725   1.358       .  S
C1721      C1722   1.413       .  A
C1722      F1723   1.358       .  S
C1727      C1728   1.409       .  A
C1727      C1732   1.392       .  A
C1727      F1734   1.358       .  S
C1728      C1729   1.415       .  A
C1729      C1730   1.400       .  A
C1729      F1736   1.358       .  S
C1730      C1731   1.408       .  A
C1730      F1735   1.358       .  S
C1731      C1732   1.411       .  A
C1732      F1733   1.359       .  S
C1737      C1738   1.408       .  A
C1737      C1742   1.401       .  A
C1737      F1744   1.358       .  S
C1738      C1739   1.410       .  A
C1739      C1740   1.391       .  A
C1739      F1746   1.358       .  S
C1740      C1741   1.409       .  A
C1740      F1745   1.358       .  S
C1741      C1742   1.414       .  A
C1742      F1743   1.358       .  S
C1747      C1748   1.409       .  A
C1747      C1752   1.400       .  A
C1747      F1754   1.358       .  S
C1748      C1749   1.407       .  A
C1749      C1750   1.397       .  A
C1749      F1756   1.358       .  S
C1750      C1751   1.411       .  A
C1750      F1755   1.358       .  S
C1751      C1752   1.413       .  A
C1752      F1753   1.358       .  S
C1757      C1758   1.405       .  A
C1757      C1762   1.398       .  A
C1757      F1764   1.357       .  S
C1758      C1759   1.407       .  A
C1759      C1760   1.394       .  A
C1759      F1766   1.359       .  S
C1760      C1761   1.410       .  A
C1760      F1765   1.358       .  S
C1761      C1762   1.413       .  A
C1762      F1763   1.358       .  S
C1767      C1768   1.411       .  A
C1767      C1772   1.398       .  A
C1767      F1774   1.358       .  S
C1768      C1769   1.410       .  A
C1769      C1770   1.396       .  A
C1769      F1776   1.358       .  S
C1770      C1771   1.406       .  A
C1770      F1775   1.358       .  S
C1771      C1772   1.406       .  A
C1772      F1773   1.358       .  S
C1777      C1778   1.408       .  A
C1777      C1782   1.395       .  A
C1777      F1784   1.358       .  S
C1778      C1779   1.413       .  A
C1779      C1780   1.399       .  A
C1779      F1786   1.358       .  S
C1780      C1781   1.406       .  A
C1780      F1785   1.356       .  S
C1781      C1782   1.410       .  A
C1782      F1783   1.358       .  S
C1787      C1788   1.413       .  A
C1787      C1792   1.402       .  A
C1787      F1794   1.358       .  S
C1788      C1789   1.408       .  A
C1789      C1790   1.393       .  A
C1789      F1796   1.358       .  S
C1790      C1791   1.412       .  A
C1790      F1795   1.358       .  S
C1791      C1792   1.411       .  A
C1792      F1793   1.358       .  S
C1797      C1798   1.414       .  A
C1797      C1802   1.398       .  A
C1797      F1804   1.358       .  S
C1798      C1799   1.410       .  A
C1799      C1800   1.393       .  A
C1799      F1806   1.358       .  S
C1800      C1801   1.408       .  A
C1800      F1805   1.359       .  S
C1801      C1802   1.405       .  A
C1802      F1803   1.357       .  S
C1807      C1808   1.410       .  A
C1807      C1812   1.397       .  A
C1807      F1814   1.358       .  S
C1808      C1809   1.409       .  A
C1809      C1810   1.397       .  A
C1809      F1816   1.358       .  S
C1810      C1811   1.406       .  A
C1810      F1815   1.358       .  S
C1811      C1812   1.406       .  A
C1812      F1813   1.358       .  S
C1817      C1818   1.413       .  A
C1817      C1822   1.390       .  A
C1817      F1824   1.359       .  S
C1818      C1819   1.409       .  A
C1819      C1820   1.399       .  A
C1819      F1826   1.358       .  S
C1820      C1821   1.414       .  A
C1820      F1825   1.358       .  S
C1821      C1822   1.408       .  A
C1822      F1823   1.358       .  S
C1827      C1828   1.414       .  A
C1827      C1832   1.399       .  A
C1827      F1834   1.358       .  S
C1828      C1829   1.410       .  A
C1829      C1830   1.397       .  A
C1829      F1836   1.358       .  S
C1830      C1831   1.408       .  A
C1830      F1835   1.359       .  S
C1831      C1832   1.405       .  A
C1832      F1833   1.358       .  S
