geometry optimzed in LAMMPS
_audit_creation_date              2020-11-30 
_audit_creation_method            'lammps2cif' 
_symmetry_space_group_name_H-M    'P1' 
_symmetry_Int_Tables_number       1 
_symmetry_cell_setting            triclinic 
loop_ 
_symmetry_equiv_pos_as_xyz 
  x,y,z 
_cell_length_a                    30.07832364 
_cell_length_b                    30.007381911362327 
_cell_length_c                    41.70869637816453 
_cell_angle_alpha                 89.43637533788248 
_cell_angle_beta                  90.18700502643331 
_cell_angle_gamma                 120.08743307374186 
loop_ 
_atom_site_label 
_atom_site_type_symbol 
_atom_site_fract_x 
_atom_site_fract_y 
_atom_site_fract_z 
_atom_site_charge 
O1          O  0.45244194  0.09828390  0.29826413    -0.74500
O2          O  0.48043887  0.06055297  0.33432624    -0.53400
C3          C  0.45893328  0.08660358  0.32713016     0.79200
O4          O  0.36568173  0.91114031  0.19244585    -0.59100
O5          O  0.43050666  0.95460784  0.15655698    -0.52100
C6          C  0.38345583  0.92453839  0.16365256     0.71300
O7          O  0.36760646  0.91717805  0.30330571    -0.73600
O8          O  0.43368656  0.96162940  0.33782751    -0.54200
C9          C  0.38635027  0.93099110  0.33176601     0.77300
O10         O  0.45604969  0.09782823  0.18757504    -0.58800
O11         O  0.48020682  0.05446929  0.15401029    -0.51900
C12         C  0.46077424  0.08288219  0.15940732     0.73900
Zr13       Zr  0.47633096  0.08614200  0.24381169     2.54700
O14         O  0.40806398  0.10734482  0.24207332    -0.79400
O15         O  0.53536790  0.17884068  0.24389277    -0.92800
Zr16       Zr  0.39992137  0.93109592  0.24763575     2.64700
O17         O  0.31356751  0.91937526  0.24834401    -0.97700
O18         O  0.35999983  0.83756607  0.24946612    -0.79800
O19         O  0.44395378  0.00975264  0.27133065    -0.83100
O20         O  0.43474160  0.00711418  0.21587710    -2.17900
O21         O  0.64217140  0.09776910  0.18799576    -0.66500
O22         O  0.57495859  0.05379699  0.15415844    -0.51100
C23         C  0.62275134  0.08232636  0.15977360     0.72200
O24         O  0.55163805  0.91919354  0.30391495    -0.59400
O25         O  0.52981153  0.96367140  0.33807776    -0.51400
C26         C  0.54694879  0.93340641  0.33224084     0.74000
O27         O  0.54853851  0.91262063  0.19334568    -0.70800
O28         O  0.52548114  0.95456124  0.15713454    -0.49500
C29         C  0.54355027  0.92540790  0.16444910     0.75400
O30         O  0.64550099  0.09870147  0.29852169    -0.66200
O31         O  0.57960952  0.06206306  0.33432020    -0.53400
C32         C  0.62721315  0.08741635  0.32727847     0.73800
Zr33       Zr  0.60977624  0.08679611  0.24405021     2.77500
O34         O  0.69942952  0.10835972  0.24467251    -0.96900
O35         O  0.64404239  0.17959411  0.24331252    -0.77700
Zr36       Zr  0.53230044  0.93181664  0.24813055     2.68000
O37         O  0.60633924  0.91922113  0.24936218    -0.79000
O38         O  0.47784848  0.83837848  0.24974713    -0.98100
Zr39       Zr  0.50531537  0.01103217  0.30343310     2.21500
Zr40       Zr  0.50345020  0.00615814  0.18838627     2.11100
O41         O  0.57328358  0.00776300  0.21633238    -2.46800
O42         O  0.56575715  0.01045271  0.27160322    -0.78800
O43         O  0.54405734  0.08847005  0.21282571    -0.71000
O44         O  0.46456508  0.92848156  0.27921138    -2.31900
O45         O  0.54526350  0.09099877  0.27498096    -2.28100
O46         O  0.46813880  0.93535799  0.22087778    -0.72700
H47         H  0.40842399  0.00589071  0.20201612     0.79300
H48         H  0.45063979  0.90039570  0.29457266     0.80400
H49         H  0.59865460  0.00670867  0.20278308     0.82600
H50         H  0.55972222  0.12016437  0.28919350     0.80200
H51         H  0.36530968  0.82804015  0.22774354     0.43200
H52         H  0.45809237  0.82974398  0.22950124     0.42200
H53         H  0.63649267  0.95446152  0.24845378     0.41900
H54         H  0.70038870  0.08149704  0.23158671     0.39800
H55         H  0.63889792  0.18762163  0.22099716     0.42900
H56         H  0.51810516  0.19271878  0.25733397     0.37700
H57         H  0.37721403  0.07513538  0.23525872     0.43800
H58         H  0.31443236  0.94423119  0.23221207     0.40300
H59         H  0.71786824  0.14031404  0.23163699     0.45200
H60         H  0.53352202  0.19032573  0.22184105     0.43900
H61         H  0.29149741  0.88516049  0.23864958     0.44000
H62         H  0.50194308  0.82528307  0.24688641     0.44400
O63         O  0.08460828  0.63558649  0.30493020    -0.74500
O64         O  0.04435304  0.57000499  0.34097305    -0.53400
C65         C  0.07154933  0.61761127  0.33372862     0.79200
O66         O  0.90598573  0.54512211  0.19649264    -0.59100
O67         O  0.94787222  0.52115159  0.16158193    -0.52100
C68         C  0.92033266  0.54113106  0.16801555     0.71300
O69         O  0.91179713  0.55009834  0.30711489    -0.73600
O70         O  0.94861704  0.52025980  0.34244549    -0.54200
C71         C  0.92361992  0.54297619  0.33578519     0.77300
O72         O  0.09218192  0.63156621  0.19469534    -0.58800
O73         O  0.04584532  0.56579041  0.16040681    -0.51900
C74         C  0.07755088  0.61293940  0.16627987     0.73900
Zr75       Zr  0.07439141  0.59952245  0.25081841     2.54700
O76         O  0.09528705  0.68912362  0.24702889    -0.79400
O77         O  0.16671670  0.63270657  0.25356172    -0.92800
Zr78       Zr  0.91980119  0.52503636  0.25205165     2.64700
O79         O  0.90214946  0.59608187  0.25254917    -0.97700
O80         O  0.82655364  0.47033298  0.25335698    -0.79800
O81         O  0.99733034  0.55763549  0.27704307    -0.83100
O82         O  0.99687860  0.56560273  0.22146462    -2.17900
O83         O  0.08553657  0.44737598  0.19661183    -0.66500
O84         O  0.04249698  0.47044140  0.16151568    -0.51100
C85         C  0.07160979  0.45210606  0.16802498     0.72200
O86         O  0.91146353  0.35590680  0.30826490    -0.59400
O87         O  0.94750630  0.42295085  0.34274838    -0.51400
C88         C  0.92380927  0.37494091  0.33672948     0.74000
O89         O  0.89680289  0.35655046  0.19836818    -0.70800
O90         O  0.94161257  0.42214943  0.16298213    -0.49500
C91         C  0.91066182  0.37498408  0.16969905     0.75400
O92         O  0.07920732  0.44014605  0.30715259    -0.66200
O93         O  0.04476379  0.47215847  0.34211917    -0.53400
C94         C  0.06866198  0.44836518  0.33569680     0.73800
Zr95       Zr  0.07080516  0.46557081  0.25211782     2.77500
O96         O  0.09029458  0.39580671  0.25358563    -0.96900
O97         O  0.16385461  0.52150830  0.25365397    -0.77700
Zr98       Zr  0.91639681  0.39071733  0.25346504     2.70100
O99         O  0.89345969  0.30046800  0.25143822    -0.79000
O100        O  0.82428677  0.35732106  0.25873692    -0.98100
Zr101      Zr  0.99590624  0.49588274  0.30923401     2.21500
Zr102      Zr  0.99450243  0.49465084  0.19477348     2.11100
O103        O  0.99295604  0.42410801  0.22259454    -2.46800
O104        O  0.99417950  0.43357008  0.27830715    -0.78800
O105        O  0.06743234  0.52993375  0.22453883    -0.71000
O106        O  0.91392894  0.45603531  0.28407142    -2.31900
O107        O  0.07716679  0.53494722  0.28296968    -2.28100
O108        O  0.92237194  0.45979145  0.22568533    -0.72700
H109        H  0.99823955  0.59211361  0.20753447     0.79300
H110        H  0.88578029  0.44245059  0.29920430     0.80400
H111        H  0.99189281  0.39781560  0.20893906     0.82600
H112        H  0.10570356  0.54882612  0.29774956     0.80200
H113        H  0.81688823  0.47246175  0.27573230     0.43200
H114        H  0.81054379  0.34666853  0.23681015     0.42200
H115        H  0.92677449  0.30138317  0.25019395     0.41900
H116        H  0.06365379  0.36845410  0.24006905     0.39800
H117        H  0.17324298  0.53679916  0.23186209     0.42900
H118        H  0.17589976  0.64353590  0.27611201     0.37700
H119        H  0.06154475  0.68737934  0.24630179     0.43800
H120        H  0.92953634  0.62343122  0.23915081     0.40300
H121        H  0.12256987  0.40891637  0.24118267     0.45200
H122        H  0.18212918  0.66541145  0.24117199     0.43900
H123        H  0.87032591  0.58395015  0.23983082     0.44000
H124        H  0.81143521  0.32453880  0.27081148     0.44400
O125        O  0.54199203  0.63400041  0.30447142    -0.74500
O126        O  0.52100088  0.56879276  0.34029512    -0.53400
C127        C  0.53772913  0.61594772  0.33324395     0.79200
O128        O  0.35991438  0.44211345  0.19539352    -0.59100
O129        O  0.42663563  0.46865946  0.16054795    -0.52100
C130        C  0.37895295  0.44806536  0.16693138     0.71300
O131        O  0.36003571  0.44987297  0.30586822    -0.73600
O132        O  0.42589701  0.47302932  0.34099760    -0.54200
C133        C  0.37856058  0.45487529  0.33448512     0.77300
O134        O  0.54864388  0.63287995  0.19370811    -0.58800
O135        O  0.52251413  0.56596368  0.15935900    -0.51900
C136        C  0.54260803  0.61380486  0.16534431     0.73900
Zr137      Zr  0.52635171  0.60041670  0.24921219     2.54700
O138        O  0.47047648  0.63744172  0.24680094    -0.79400
O139        O  0.59698456  0.68928050  0.24815837    -0.92800
Zr140      Zr  0.39341770  0.46677152  0.25022496     2.64700
O141        O  0.35936186  0.52524168  0.24717827    -0.97700
O142        O  0.30435531  0.39715955  0.25135047    -0.79800
O143        O  0.45817238  0.53556180  0.28071938    -0.83100
O144        O  0.45837733  0.53472790  0.21871258    -2.17900
O145        O  0.63837344  0.55115748  0.19698668    -0.66500
O146        O  0.57252796  0.51897580  0.16135171    -0.51100
C147        C  0.62012783  0.54351767  0.16821472     0.72200
O148        O  0.45153933  0.35639890  0.30861322    -0.59400
O149        O  0.47612408  0.42379071  0.34233901    -0.51400
C150        C  0.45636533  0.37585898  0.33681251     0.74000
O151        O  0.44810887  0.35400416  0.19823047    -0.70800
O152        O  0.47643309  0.42015224  0.16238149    -0.49500
C153        C  0.45529493  0.37242803  0.16941557     0.75400
O154        O  0.63593823  0.54241240  0.30753404    -0.66200
O155        O  0.56952490  0.51843307  0.34232519    -0.53400
C156        C  0.61704974  0.53763923  0.33602686     0.73800
Zr157      Zr  0.60347576  0.52296884  0.25168707     2.77500
O158        O  0.63896154  0.46569963  0.24955884    -0.96900
O159        O  0.69375246  0.59014555  0.25335966    -0.77700
Zr160      Zr  0.47110057  0.38983341  0.25272447     2.70100
O161        O  0.52671110  0.35249795  0.25203853    -0.79000
O162        O  0.39941795  0.30152846  0.25662435    -0.98100
Zr163      Zr  0.49852584  0.49572700  0.30840957     2.21500
Zr164      Zr  0.49923310  0.49386298  0.19369379     2.11100
O165        O  0.53978576  0.45369071  0.22096639    -2.46800
O166        O  0.53495259  0.45907709  0.27899245    -0.78800
O167        O  0.55973155  0.55571145  0.22501504    -0.71000
O168        O  0.42931263  0.42617903  0.28126397    -2.31900
O169        O  0.56767913  0.56526168  0.28033407    -2.28100
O170        O  0.43793592  0.43323101  0.22585567    -0.72700
H171        H  0.44423526  0.54859516  0.20337641     0.79300
H172        H  0.40341849  0.40046575  0.29517367     0.80400
H173        H  0.55423882  0.43930036  0.20652280     0.82600
H174        H  0.59327206  0.59147376  0.29391085     0.80200
H175        H  0.30655490  0.36532544  0.25177412     0.43200
H176        H  0.37172211  0.30105132  0.24347484     0.42200
H177        H  0.55158908  0.37001602  0.26955386     0.41900
H178        H  0.65164367  0.46917351  0.22727230     0.39800
H179        H  0.69365564  0.62254153  0.24881537     0.42900
H180        H  0.62275261  0.68986275  0.26324703     0.37700
H181        H  0.45632186  0.63288731  0.26875900     0.43800
H182        H  0.34344248  0.51936163  0.22567375     0.40300
H183        H  0.67056533  0.48292771  0.26269838     0.45200
H184        H  0.58334884  0.70919250  0.25898220     0.43900
H185        H  0.32990463  0.51033372  0.26224084     0.44000
H186        H  0.41056192  0.28055886  0.24454830     0.44400
O187        O  0.79146588  0.43655434  0.00596747    -0.74500
O188        O  0.87723191  0.49072933  0.00263561    -0.53400
C189        C  0.83760643  0.44412394  0.50370653     0.79200
O190        O  0.71372587  0.57014677  0.41353210    -0.59100
O191        O  0.65562249  0.56528877  0.45020925    -0.52100
C192        C  0.67066970  0.56557269  0.42117289     0.71300
O193        O  0.85501641  0.56902628  0.41307610    -0.73600
O194        O  0.90989550  0.56709958  0.45001779    -0.54200
C195        C  0.89461708  0.56641314  0.42090919     0.77300
O196        O  0.64395271  0.43559527  0.50692931    -0.58800
O197        O  0.61262954  0.48994201  0.50289189    -0.51900
C198        C  0.60615024  0.44384658  0.50466626     0.73900
Zr199      Zr  0.73528017  0.47153855  0.00910963     2.54700
O200        O  0.69425757  0.39150719  0.47812470    -0.79400
O201        O  0.71119858  0.42410575  0.05975974    -0.92800
Zr202      Zr  0.78584105  0.57199275  0.43771193     2.64700
O203        O  0.75257011  0.50226212  0.39902999    -0.97700
O204        O  0.81819758  0.63876816  0.39626188    -0.79800
O205        O  0.80190403  0.51780236  0.47132868    -0.83100
O206        O  0.71584146  0.51780126  0.47119734    -2.17900
O207        O  0.71894795  0.57965817  0.09089379    -0.66500
O208        O  0.65850803  0.56975145  0.05415447    -0.51100
C209        C  0.67463202  0.57215916  0.08319925     0.72200
O210        O  0.94109437  0.72435855  0.49716248    -0.59400
O211        O  0.95325272  0.65543099  0.99983504    -0.51400
C212        C  0.97081843  0.70429207  0.99773161     0.74000
O213        O  0.78144446  0.72342973  0.49592024    -0.70800
O214        O  0.70008868  0.65370427  0.49877890    -0.49500
C215        C  0.73130087  0.70260290  0.49690614     0.75400
O216        O  0.86451724  0.58581756  0.09077944    -0.66200
O217        O  0.91269341  0.57212828  0.05441598    -0.53400
C218        C  0.90025757  0.57664724  0.08334360     0.73800
Zr219      Zr  0.79464105  0.58920335  0.06661063     2.77500
O220        O  0.83317788  0.67095635  0.09460831    -0.96900
O221        O  0.77229279  0.54229015  0.11739802    -0.77700
Zr222      Zr  0.84334976  0.68772395  0.49698054     2.70100
O223        O  0.87658899  0.75565606  0.03686422    -0.79000
O224        O  0.87107203  0.74189686  0.44904927    -0.98100
Zr225      Zr  0.87527916  0.57378613  0.00223108     2.21500
Zr226      Zr  0.69776570  0.57277614  0.50217105     2.11100
O227        O  0.77251904  0.63635129  0.03127226    -2.46800
O228        O  0.86357606  0.63657891  0.03120090    -0.78800
O229        O  0.71991752  0.52782033  0.03940136    -0.71000
O230        O  0.85866135  0.62831540  0.46765424    -2.31900
O231        O  0.80715386  0.52734977  0.03945232    -2.28100
O232        O  0.76876080  0.62790137  0.46755630    -0.72700
H233        H  0.68676167  0.49469309  0.45827448     0.79300
H234        H  0.88733663  0.64754964  0.45330900     0.80400
H235        H  0.76415429  0.65800255  0.04386986     0.82600
H236        H  0.81442972  0.50681360  0.05419331     0.80200
H237        H  0.85481402  0.66194631  0.40160610     0.43200
H238        H  0.83884876  0.73259433  0.43743071     0.42200
H239        H  0.90343753  0.75190579  0.04830283     0.41900
H240        H  0.82394247  0.66119755  0.11738837     0.39800
H241        H  0.75783384  0.50579689  0.11128837     0.42900
H242        H  0.73167840  0.40662325  0.06074839     0.37700
H243        H  0.69875539  0.40311952  0.45545912     0.43800
H244        H  0.71546132  0.48091738  0.40394303     0.40300
H245        H  0.87060299  0.68399134  0.09367419     0.45200
H246        H  0.67541856  0.39595183  0.05654995     0.43900
H247        H  0.75393642  0.51895952  0.37817152     0.44000
H248        H  0.88304826  0.77707820  0.45704384     0.44400
O249        O  0.64436259  0.20979427  0.99259011    -0.74500
O250        O  0.61277604  0.12372476  0.99210249    -0.53400
C251        C  0.60644824  0.16352170  0.99177312     0.79200
O252        O  0.88324138  0.27548873  0.41816032    -0.59100
O253        O  0.91141072  0.34377263  0.45094523    -0.52100
C254        C  0.90711737  0.32387391  0.42302887     0.71300
O255        O  0.72427000  0.14882618  0.40600459    -0.73600
O256        O  0.66208203  0.09433755  0.44093492    -0.54200
C257        C  0.67993535  0.11053528  0.41244175     0.77300
O258        O  0.79145921  0.35596322  0.50009535    -0.58800
O259        O  0.87701416  0.38691828  0.50345949    -0.51900
C260        C  0.83754929  0.39362088  0.50225810     0.73900
Zr261      Zr  0.73539353  0.26542880  0.99689832     2.54700
O262        O  0.70741716  0.30220266  0.45506353    -0.79400
O263        O  0.70232618  0.29573519  0.03945651    -0.92800
Zr264      Zr  0.79608808  0.21606824  0.43311841     2.64700
O265        O  0.77763681  0.26502052  0.39361574    -0.97700
O266        O  0.82072221  0.18004705  0.38918079    -0.79800
O267        O  0.72089404  0.19861971  0.46150075    -0.83100
O268        O  0.80786153  0.28571240  0.46532676    -2.17900
O269        O  0.84489873  0.27890141  0.09090321    -0.66500
O270        O  0.90409623  0.33783693  0.05623505    -0.51100
C271        C  0.88517643  0.32187669  0.08456555     0.72200
O272        O  0.78141773  0.05808173  0.49890841    -0.59400
O273        O  0.70038872  0.04702102  0.99598633    -0.51400
C274        C  0.73152498  0.02935918  0.99794662     0.74000
O275        O  0.93989704  0.21573367  0.50202074    -0.70800
O276        O  0.95224981  0.29739180  0.50385004    -0.49500
C277        C  0.96952941  0.26581534  0.50329134     0.75400
O278        O  0.72140851  0.11767353  0.07902851    -0.66200
O279        O  0.65379475  0.09039098  0.04570833    -0.53400
C280        C  0.67324537  0.09519578  0.07392739     0.73800
Zr281      Zr  0.78139500  0.20452690  0.06380188     2.77500
O282        O  0.81638346  0.17797474  0.10804926    -0.96900
O283        O  0.72818221  0.21969479  0.10096082    -0.77700
Zr284      Zr  0.84245956  0.15555715  0.49979865     2.70100
O285        O  0.87057436  0.12415334  0.04484185    -0.79000
O286        O  0.87512302  0.12762221  0.45568704    -0.98100
Zr287      Zr  0.69774592  0.12568982  0.99430890     2.21500
Zr288      Zr  0.87436141  0.30134482  0.50253492     2.11100
O289        O  0.85612690  0.22612955  0.03378625    -2.46800
O290        O  0.76685112  0.13728373  0.02892327    -0.78800
O291        O  0.80029949  0.27934969  0.03379274    -0.71000
O292        O  0.77332763  0.14190762  0.46473136    -2.31900
O293        O  0.71325604  0.19335979  0.02997946    -2.28100
O294        O  0.86262033  0.23105647  0.46920236    -0.72700
H295        H  0.81640723  0.31568443  0.45223554     0.79300
H296        H  0.76552097  0.11340183  0.45076808     0.80400
H297        H  0.88406373  0.23388718  0.04836229     0.82600
H298        H  0.68321834  0.18549640  0.04253020     0.80200
H299        H  0.82650677  0.15347958  0.39941786     0.43200
H300        H  0.89531651  0.15907913  0.44247757     0.42200
H301        H  0.84734585  0.12084059  0.06262402     0.41900
H302        H  0.85419644  0.19870118  0.10569030     0.39800
H303        H  0.73386147  0.25413496  0.09485015     0.42900
H304        H  0.66815217  0.26611338  0.04489332     0.37700
H305        H  0.71878087  0.29390878  0.43486477     0.43800
H306        H  0.80767769  0.30030117  0.39395778     0.40300
H307        H  0.80857965  0.19139774  0.12753946     0.45200
H308        H  0.69507652  0.32091776  0.02867616     0.43900
H309        H  0.78005656  0.25106825  0.37268758     0.44000
H310        H  0.90119020  0.12098829  0.46566704     0.44400
O311        O  0.35506018  0.79076473  0.99893062    -0.74500
O312        O  0.38691994  0.87685689  0.99849030    -0.53400
C313        C  0.39303369  0.83701043  0.99861742     0.79200
O314        O  0.13967044  0.71720287  0.40974926    -0.59100
O315        O  0.08829291  0.65787893  0.44716940    -0.52100
C316        C  0.10157032  0.67366364  0.41795831     0.71300
O317        O  0.28686150  0.85724030  0.40894023    -0.73600
O318        O  0.34401296  0.91008574  0.44624738    -0.54200
C319        C  0.32996194  0.89579398  0.41701881     0.77300
O320        O  0.20716474  0.64327243  0.50181654    -0.58800
O321        O  0.12150008  0.61186016  0.49961516    -0.51900
C322        C  0.16102155  0.60537014  0.50097924     0.73900
Zr323      Zr  0.26394977  0.73454448  0.99998139     2.54700
O324        O  0.29328098  0.69797348  0.45901466    -0.79400
O325        O  0.29499130  0.70197378  0.04307256    -0.92800
Zr326      Zr  0.21151006  0.78909162  0.43356041     2.64700
O327        O  0.24345896  0.75801696  0.39060124    -0.97700
O328        O  0.17680280  0.82781388  0.39710732    -0.79800
O329        O  0.28286115  0.80362878  0.46512996    -0.83100
O330        O  0.19554003  0.71673819  0.46534995    -2.17900
O331        O  0.14577473  0.71256226  0.08830607    -0.66500
O332        O  0.09037583  0.65606785  0.05170338    -0.51100
C333        C  0.10682256  0.66959239  0.08071294     0.72200
O334        O  0.21750746  0.94107917  0.49807902    -0.59400
O335        O  0.29893172  0.95319062  0.99901857    -0.51400
C336        C  0.26765131  0.97073340  0.99852431     0.74000
O337        O  0.05890935  0.78314162  0.49735115    -0.70800
O338        O  0.04659369  0.70144569  0.49850664    -0.49500
C339        C  0.02923908  0.73297182  0.49791758     0.75400
O340        O  0.28263420  0.85955707  0.08734045    -0.66200
O341        O  0.34268529  0.91035169  0.05028030    -0.53400
C342        C  0.32678420  0.89669623  0.07937906     0.73800
Zr343      Zr  0.20874290  0.79031204  0.06345089     2.77500
O344        O  0.16415820  0.82552339  0.09337698    -0.96900
O345        O  0.23667255  0.76891701  0.11317864    -0.77700
Zr346      Zr  0.15654975  0.84352251  0.49748433     2.70100
O347        O  0.12500616  0.87544773  0.03979439    -0.79000
O348        O  0.12847722  0.87396967  0.45171025    -0.98100
Zr349      Zr  0.30223252  0.87491307  0.99845983     2.21500
Zr350      Zr  0.12448661  0.69739652  0.49916964     2.11100
O351        O  0.13797040  0.77054173  0.03032088    -2.46800
O352        O  0.22921881  0.86146204  0.02990261    -0.78800
O353        O  0.19454797  0.71763274  0.03360968    -0.71000
O354        O  0.22991665  0.86042761  0.46562616    -2.31900
O355        O  0.28116332  0.80391454  0.03335965    -2.28100
O356        O  0.14014085  0.77033113  0.46613853    -0.72700
H357        H  0.18864085  0.68792692  0.45192635     0.79300
H358        H  0.23919409  0.88983298  0.45180164     0.80400
H359        H  0.10843738  0.76153610  0.04370041     0.82600
H360        H  0.30940219  0.81045030  0.04735221     0.80200
H361        H  0.18756250  0.82333659  0.37553342     0.43200
H362        H  0.10675782  0.84261375  0.43908905     0.42200
H363        H  0.15620313  0.90030964  0.05156619     0.41900
H364        H  0.15660807  0.80770452  0.11445121     0.39800
H365        H  0.25401005  0.74995132  0.10626645     0.42900
H366        H  0.26535535  0.68394538  0.05784694     0.37700
H367        H  0.30309775  0.72239623  0.44071756     0.43800
H368        H  0.23100620  0.72140708  0.39595924     0.40300
H369        H  0.19091033  0.86145705  0.09798600     0.45200
H370        H  0.32000035  0.73287310  0.05498701     0.43900
H371        H  0.22361913  0.75705179  0.37136766     0.44000
H372        H  0.10399289  0.88337096  0.46087615     0.44400
O373        O  0.56883192  0.85789518  0.40955657    -0.74500
O374        O  0.56701801  0.91183872  0.44687680    -0.53400
C375        C  0.56627372  0.89749643  0.41764449     0.79200
O376        O  0.43422562  0.64341920  0.50298327    -0.59100
O377        O  0.48840504  0.61198761  0.49974385    -0.52100
C378        C  0.44246550  0.60556675  0.50158721     0.71300
O379        O  0.43513741  0.79089207  0.99906676    -0.73600
O380        O  0.48929530  0.87695128  0.99872356    -0.54200
C381        C  0.44310240  0.83691350  0.49898897     0.77300
O382        O  0.57035958  0.71560485  0.40944825    -0.58800
O383        O  0.56506205  0.65702144  0.44668510    -0.51900
C384        C  0.56539684  0.67222147  0.41752004     0.73900
Zr385      Zr  0.57377537  0.78831574  0.43387037     2.54700
O386        O  0.50799745  0.75477027  0.39242369    -0.79400
O387        O  0.64515057  0.82669500  0.39607377    -0.92800
Zr388      Zr  0.46983203  0.73462452  0.00053072     2.64700
O389        O  0.39975458  0.70008976  0.46300465    -0.97700
O390        O  0.40752389  0.70549110  0.04402294    -0.79800
O391        O  0.51832277  0.80336450  0.46612359    -0.83100
O392        O  0.51847759  0.71650741  0.46620952    -2.17900
O393        O  0.72233361  0.78185847  0.49554566    -0.66500
O394        O  0.65288801  0.70019950  0.49762665    -0.51100
C395        C  0.70176933  0.73169007  0.49647685     0.72200
O396        O  0.57773514  0.85923890  0.08822358    -0.59400
O397        O  0.56805782  0.90997814  0.05107541    -0.51400
C398        C  0.57088898  0.89653388  0.08020445     0.74000
O399        O  0.57381011  0.71367688  0.08807634    -0.70800
O400        O  0.56697971  0.65546454  0.05092524    -0.49500
C401        C  0.56795716  0.67007961  0.08010404     0.75400
O402        O  0.72258885  0.94061622  0.49709148    -0.66200
O403        O  0.65336164  0.95318587  0.99908772    -0.53400
C404        C  0.70217855  0.97073048  0.99858934     0.73800
Zr405      Zr  0.68588122  0.84293138  0.49636456     2.77500
O406        O  0.74994020  0.87586831  0.04024576    -0.96900
O407        O  0.74441112  0.87392854  0.45077071    -0.77700
Zr408      Zr  0.58030781  0.78910311  0.06406301     2.70100
O409        O  0.65583067  0.82451828  0.09840503    -0.79000
O410        O  0.52066901  0.76181601  0.10917923    -0.98100
Zr411      Zr  0.57192247  0.87476276  0.99892081     2.21500
Zr412      Zr  0.57138877  0.69710103  0.49897892     2.11100
O413        O  0.63141881  0.77025546  0.03052314    -2.46800
O414        O  0.63109808  0.86039268  0.03045949    -0.78800
O415        O  0.62773161  0.76956374  0.46538167    -0.71000
O416        O  0.52215404  0.80383973  0.03382859    -2.31900
O417        O  0.62829854  0.85967383  0.46542257    -2.28100
O418        O  0.52212572  0.71663844  0.03392770    -0.72700
H419        H  0.49586686  0.68769106  0.45296587     0.79300
H420        H  0.50053506  0.81037192  0.04779085     0.80400
H421        H  0.65216500  0.76123046  0.04378990     0.82600
H422        H  0.64811642  0.88897221  0.45148547     0.80200
H423        H  0.42349325  0.69590032  0.06154515     0.43200
H424        H  0.49629054  0.72472887  0.10577645     0.42200
H425        H  0.67455611  0.86189112  0.09345747     0.41900
H426        H  0.74095208  0.84540610  0.05398723     0.39800
H427        H  0.73474540  0.84276138  0.43797948     0.42900
H428        H  0.62862207  0.81989540  0.37472691     0.37700
H429        H  0.47785372  0.75404292  0.40247366     0.43800
H430        H  0.40583998  0.67682241  0.44938839     0.40300
H431        H  0.78238983  0.88347210  0.02957396     0.45200
H432        H  0.66055736  0.80429700  0.39714599     0.43900
H433        H  0.36900190  0.67683958  0.47585432     0.44000
H434        H  0.54117211  0.76290896  0.12809134     0.44400
O435        O  0.20710958  0.56318769  0.99899273    -0.74500
O436        O  0.12131482  0.50868775  0.00096441    -0.53400
C437        C  0.16099879  0.55486949  0.50079890     0.79200
O438        O  0.28012136  0.42050876  0.41203650    -0.59100
O439        O  0.34052541  0.43012352  0.44869516    -0.52100
C440        C  0.32421153  0.42739366  0.41965908     0.71300
O441        O  0.13741621  0.42034781  0.41275886    -0.73600
O442        O  0.08706187  0.42923385  0.44989040    -0.54200
C443        C  0.09987960  0.42633878  0.42077563     0.77300
O444        O  0.35420415  0.56329741  0.50082478    -0.58800
O445        O  0.38583729  0.50904426  0.50110878    -0.51900
C446        C  0.39209757  0.55509861  0.50122734     0.73900
Zr447      Zr  0.26318637  0.52825925  0.99990814     2.54700
O448        O  0.29275301  0.58740924  0.45358241    -0.79400
O449        O  0.29490591  0.59582787  0.03981982    -0.92800
Zr450      Zr  0.20756560  0.41753012  0.43661030     2.64700
O451        O  0.23448018  0.47826370  0.39177931    -0.97700
O452        O  0.17173549  0.34227934  0.40223221    -0.79800
O453        O  0.19292662  0.47556388  0.46650503    -0.83100
O454        O  0.28052761  0.47618561  0.46615103    -2.17900
O455        O  0.28396865  0.42534808  0.08987281    -0.66500
O456        O  0.34078835  0.42827897  0.05279454    -0.51100
C457        C  0.32617237  0.42804616  0.08190605     0.72200
O458        O  0.05743488  0.27409842  0.50351404    -0.59400
O459        O  0.04556853  0.34405666  0.00318480    -0.51400
C460        C  0.02795066  0.29515183  0.00294947     0.74000
O461        O  0.21625344  0.27458561  0.50166321    -0.70800
O462        O  0.29764140  0.34438324  0.50068772    -0.49500
C463        C  0.26636779  0.29540926  0.50101668     0.75400
O464        O  0.13966098  0.42252139  0.09087625    -0.66200
O465        O  0.08714086  0.42890058  0.05394081    -0.53400
C466        C  0.10118721  0.42731867  0.08306395     0.73800
Zr467      Zr  0.20954765  0.41989509  0.06622934     2.77500
O468        O  0.17452874  0.34433105  0.10117853    -0.96900
O469        O  0.23869093  0.47926843  0.11104528    -0.77700
Zr470      Zr  0.15506093  0.31090973  0.50288346     2.70100
O471        O  0.12607296  0.25015388  0.04703595    -0.79000
O472        O  0.12313242  0.24973792  0.45905814    -0.98100
Zr473      Zr  0.12341724  0.42561816  0.00179036     2.21500
Zr474      Zr  0.30094599  0.42596441  0.50101013     2.11100
O475        O  0.22803397  0.36745913  0.03386989    -2.46800
O476        O  0.13798029  0.36713045  0.03417060    -0.78800
O477        O  0.28145177  0.47733634  0.03477437    -0.71000
O478        O  0.13723426  0.36632172  0.47033428    -2.31900
O479        O  0.19491213  0.47740215  0.03499627    -2.28100
O480        O  0.22750264  0.36641193  0.46999461    -0.72700
H481        H  0.30880184  0.49787774  0.45206350     0.79300
H482        H  0.10749903  0.34555315  0.45721205     0.80400
H483        H  0.23709783  0.34706299  0.04753255     0.82600
H484        H  0.18842353  0.49939497  0.04860730     0.80200
H485        H  0.13401766  0.32645481  0.40432985     0.43200
H486        H  0.15372034  0.25952276  0.44553021     0.42200
H487        H  0.09950351  0.25485122  0.05789277     0.41900
H488        H  0.18362960  0.35850616  0.12309090     0.39800
H489        H  0.26164412  0.51340430  0.10115616     0.42900
H490        H  0.31657678  0.62764879  0.02728042     0.37700
H491        H  0.26117259  0.57885694  0.44141983     0.43800
H492        H  0.27096455  0.50371829  0.39605112     0.40300
H493        H  0.13681017  0.32929444  0.09996208     0.45200
H494        H  0.31952285  0.59064079  0.05287860     0.43900
H495        H  0.23531279  0.45872451  0.37302047     0.44000
H496        H  0.11534642  0.21656354  0.46911154     0.44400
O497        O  0.42591707  0.15026465  0.40571686    -0.74500
O498        O  0.43097989  0.09427762  0.44086782    -0.53400
C499        C  0.43074833  0.11124619  0.41230360     0.79200
O500        O  0.56422549  0.35583561  0.50027749    -0.59100
O501        O  0.50963394  0.38675558  0.50387856    -0.52100
C502        C  0.55577255  0.39341650  0.50281686     0.71300
O503        O  0.56428547  0.20976558  0.99212946    -0.73600
O504        O  0.50983235  0.12371122  0.99180007    -0.54200
C505        C  0.55599106  0.16315903  0.49285093     0.77300
O506        O  0.39302576  0.27734704  0.41814327    -0.58800
O507        O  0.43461588  0.34545650  0.45081401    -0.51900
C508        C  0.41950576  0.32567371  0.42285538     0.73900
Zr509      Zr  0.41798002  0.21564792  0.43271961     2.54700
O510        O  0.48447351  0.26571391  0.39324382    -0.79400
O511        O  0.35353220  0.18007667  0.39046954    -0.92800
Zr512      Zr  0.52877824  0.26544023  0.99461288     2.64700
O513        O  0.58558062  0.29598621  0.44936808    -0.97700
O514        O  0.60040535  0.30037805  0.03178653    -0.79800
O515        O  0.47597812  0.19815450  0.46100528    -0.83100
O516        O  0.47651145  0.28549717  0.46463860    -2.17900
O517        O  0.27528407  0.21612726  0.50029568    -0.66500
O518        O  0.34471137  0.29778683  0.50156303    -0.51100
C519        C  0.29583100  0.26627464  0.50094203     0.72200
O520        O  0.39817892  0.11914843  0.07842691    -0.59400
O521        O  0.43729906  0.09097243  0.04506952    -0.51400
C522        C  0.42359210  0.09641586  0.07332996     0.74000
O523        O  0.42903274  0.27746373  0.09056858    -0.70800
O524        O  0.43052356  0.33704284  0.05556254    -0.49500
C525        C  0.43148601  0.32034029  0.08408135     0.75400
O526        O  0.27620484  0.05830875  0.49923464    -0.66200
O527        O  0.34563729  0.04703210  0.99599038    -0.53400
C528        C  0.29686144  0.02930967  0.99806260     0.73800
Zr529      Zr  0.31238470  0.15570249  0.49979152     2.77500
O530        O  0.25472458  0.12505539  0.04627930    -0.96900
O531        O  0.24968531  0.12488172  0.45657534    -0.77700
Zr532      Zr  0.42463746  0.20601967  0.06306393     2.70100
O533        O  0.36997448  0.18156478  0.11039986    -0.79000
O534        O  0.49698226  0.22615281  0.09817521    -0.98100
Zr535      Zr  0.42684303  0.12574409  0.99391677     2.21500
Zr536      Zr  0.42650590  0.30150557  0.50201311     2.11100
O537        O  0.36990590  0.22648430  0.03356092    -2.46800
O538        O  0.37032901  0.13780870  0.02903117    -0.78800
O539        O  0.36729750  0.23098477  0.46899566    -0.71000
O540        O  0.48043302  0.19435946  0.02877311    -2.31900
O541        O  0.36721636  0.14174251  0.46462757    -2.28100
O542        O  0.47958650  0.28022171  0.03241067    -0.72700
H543        H  0.49801176  0.31522788  0.45140835     0.79300
H544        H  0.50302651  0.18678057  0.04120716     0.80400
H545        H  0.35006246  0.23436656  0.04822570     0.82600
H546        H  0.34636613  0.11312230  0.45075459     0.80200
H547        H  0.58681091  0.27842108  0.05121383     0.43200
H548        H  0.52087262  0.26340988  0.09461550     0.42200
H549        H  0.33453222  0.16325504  0.10182780     0.41900
H550        H  0.26252063  0.15650276  0.05821902     0.39800
H551        H  0.26658023  0.15044684  0.43906970     0.42900
H552        H  0.33509765  0.14232153  0.39401495     0.37700
H553        H  0.50954426  0.25369236  0.39564775     0.43800
H554        H  0.59374395  0.33201312  0.44599911     0.40300
H555        H  0.22019549  0.11300836  0.03707737     0.45200
H556        H  0.37333535  0.18565341  0.37044696     0.43900
H557        H  0.61803262  0.29888109  0.45708649     0.44000
H558        H  0.48333926  0.22392447  0.12006478     0.44400
C559        C  0.43909838  0.33694344  0.14220863    -0.15600
C560        C  0.43817759  0.35303953  0.11181972    -0.30800
H561        H  0.42982503  0.29756925  0.14709793     0.13400
H562        H  0.44605011  0.39200405  0.10712146     0.14000
C563        C  0.43523721  0.35942230  0.39445317    -0.15600
C564        C  0.43662459  0.34136874  0.36499028    -0.30800
H565        H  0.45009203  0.40024769  0.39818780     0.13400
H566        H  0.42285969  0.30066212  0.36150801     0.14000
C567        C  0.63976383  0.56251454  0.11039428    -0.15600
C568        C  0.65588880  0.56356543  0.14099443    -0.30800
H569        H  0.59975651  0.54982328  0.10527225     0.13400
H570        H  0.69611985  0.57735134  0.14618184     0.14000
C571        C  0.65199130  0.55522464  0.36353118    -0.15600
C572        C  0.63629405  0.55704646  0.39381661    -0.30800
H573        H  0.69142717  0.56524629  0.35872410     0.13400
H574        H  0.59716073  0.54802531  0.39858930     0.14000
C575        C  0.55929712  0.64936158  0.13775074    -0.15600
C576        C  0.55915829  0.63436079  0.10711367    -0.30800
H577        H  0.57050590  0.68905135  0.14290955     0.13400
H578        H  0.54878468  0.59494371  0.10186180     0.14000
C579        C  0.55330309  0.65162828  0.36017664    -0.15600
C580        C  0.55667234  0.63731320  0.39067758    -0.30800
H581        H  0.56118609  0.69040531  0.35471772     0.13400
H582        H  0.54951224  0.59877767  0.39606117     0.14000
C583        C  0.34390581  0.43140283  0.13950077    -0.15600
C584        C  0.36013745  0.43358380  0.10888997    -0.30800
H585        H  0.30415054  0.41993912  0.14458145     0.13400
H586        H  0.39949811  0.44373449  0.10372464     0.14000
C587        C  0.35854616  0.43598412  0.39232592    -0.15600
C588        C  0.34335004  0.43844443  0.36193515    -0.30800
H589        H  0.39747184  0.44441532  0.39722788     0.13400
H590        H  0.30424134  0.42941762  0.35697725     0.14000
C591        C  0.92448502  0.56610011  0.11082814    -0.15600
C592        C  0.90473795  0.56124638  0.14076566    -0.30800
H593        H  0.95449362  0.55691879  0.10622982     0.13400
H594        H  0.87499050  0.57079366  0.14544684     0.14000
C595        C  0.92169076  0.55953736  0.39374351    -0.15600
C596        C  0.90669904  0.56108351  0.36314793    -0.30800
H597        H  0.95034688  0.54855303  0.39881530     0.13400
H598        H  0.87903357  0.57342849  0.35808242     0.14000
C599        C  0.89022812  0.34007737  0.14231913    -0.15600
C600        C  0.90964815  0.35522945  0.11229307    -0.30800
H601        H  0.85827642  0.30153180  0.14691323     0.13400
H602        H  0.94238871  0.39335821  0.10787475     0.14000
C603        C  0.91059624  0.33991506  0.36465387    -0.15600
C604        C  0.92740709  0.35781286  0.39464311    -0.30800
H605        H  0.88547549  0.29897868  0.36065339     0.13400
H606        H  0.95167593  0.39881168  0.39872438     0.14000
C607        C  0.07410025  0.43450831  0.11017924    -0.15600
C608        C  0.09056581  0.43580788  0.14072261    -0.30800
H609        H  0.04358888  0.44286433  0.10500923     0.13400
H610        H  0.12045939  0.42654686  0.14589567     0.14000
C611        C  0.07247626  0.43335742  0.39375280    -0.15600
C612        C  0.08577606  0.43015023  0.36315248    -0.30800
H613        H  0.04533365  0.44620506  0.39883365     0.13400
H614        H  0.11216074  0.41629973  0.35808248     0.14000
C615        C  0.09841525  0.64804626  0.13846331    -0.15600
C616        C  0.08124037  0.63380394  0.10795783    -0.30800
H617        H  0.12925539  0.68687174  0.14340359     0.13400
H618        H  0.04985079  0.59531501  0.10297821     0.14000
C619        C  0.08964175  0.65388000  0.36048761    -0.15600
C620        C  0.07418411  0.63889470  0.39120541    -0.30800
H621        H  0.11840011  0.69347252  0.35484547     0.13400
H622        H  0.04494117  0.59951747  0.39681814     0.14000
C623        C  0.34758297  0.90457960  0.13671424    -0.15600
C624        C  0.36178088  0.92247914  0.10627409    -0.30800
H625        H  0.30881871  0.87383089  0.14210225     0.13400
H626        H  0.40037438  0.95359079  0.10095438     0.14000
C627        C  0.36559301  0.92365528  0.39016392    -0.15600
C628        C  0.35106578  0.90944415  0.35933089    -0.30800
H629        H  0.40440462  0.95391837  0.39567794     0.13400
H630        H  0.31194734  0.87972333  0.35394143     0.14000
C631        C  0.55972598  0.90559698  0.13763105    -0.15600
C632        C  0.56256802  0.92287309  0.10707735    -0.30800
H633        H  0.56816850  0.87514545  0.14314384     0.13400
H634        H  0.55468957  0.95370849  0.10164169     0.14000
C635        C  0.56013049  0.92640512  0.39072478    -0.15600
C636        C  0.56113848  0.91247936  0.35995483    -0.30800
H637        H  0.55158496  0.95667684  0.39607587     0.13400
H638        H  0.57070128  0.88285487  0.35475937     0.14000
C639        C  0.63938181  0.07687520  0.10220877    -0.15600
C640        C  0.65717024  0.09665458  0.13173491    -0.30800
H641        H  0.59871724  0.05054703  0.09830445     0.13400
H642        H  0.69769895  0.12397703  0.13537149     0.14000
C643        C  0.64682046  0.08606083  0.38457997    -0.15600
C644        C  0.66281999  0.10467695  0.35446907    -0.30800
H645        H  0.60761059  0.05548667  0.38902379     0.13400
H646        H  0.70231032  0.13442541  0.34980489     0.14000
C647        C  0.43945185  0.07813443  0.10162089    -0.15600
C648        C  0.44130270  0.09768708  0.13115674    -0.30800
H649        H  0.45366970  0.05171936  0.09778959     0.13400
H650        H  0.42808673  0.12498143  0.13470595     0.14000
C651        C  0.43919974  0.08648078  0.38457123    -0.15600
C652        C  0.44117101  0.10444251  0.35428533    -0.30800
H653        H  0.44765604  0.05580690  0.38922641     0.13400
H654        H  0.43146160  0.13419487  0.34945604     0.14000
O655        O  0.45158590  0.09768154  0.79828149    -0.74500
O656        O  0.48116043  0.06156784  0.83445046    -0.53400
C657        C  0.45880861  0.08681117  0.82714322     0.79200
O658        O  0.36448941  0.91197092  0.69291087    -0.59100
O659        O  0.42966346  0.95408124  0.65698867    -0.52100
C660        C  0.38250022  0.92476426  0.66408473     0.71300
O661        O  0.36715290  0.91738606  0.80400115    -0.73600
O662        O  0.43348974  0.96239394  0.83830828    -0.54200
C663        C  0.38611815  0.93173590  0.83235548     0.77300
O664        O  0.45445513  0.09715772  0.68822773    -0.58800
O665        O  0.47872206  0.05410790  0.65445929    -0.51900
C666        C  0.45899420  0.08224428  0.66001644     0.73900
Zr667      Zr  0.47614697  0.08592100  0.74415871     2.54700
O668        O  0.40951369  0.10940637  0.74230079    -0.79400
O669        O  0.53639609  0.17829455  0.74408531    -0.92800
Zr670      Zr  0.39872723  0.93060486  0.74825790     2.64700
O671        O  0.31161530  0.91656498  0.75015256    -0.97700
O672        O  0.36161875  0.83741354  0.74980617    -0.79800
O673        O  0.44409401  0.00951037  0.77155326    -0.83100
O674        O  0.43447385  0.00671555  0.71660750    -2.17900
O675        O  0.64093724  0.09772421  0.68797953    -0.66500
O676        O  0.57356709  0.05430534  0.65411143    -0.51100
C677        C  0.62136912  0.08275028  0.65972787     0.72200
O678        O  0.55093780  0.91821686  0.80410390    -0.59400
O679        O  0.52867340  0.96242262  0.83826014    -0.51400
C680        C  0.54593816  0.93224941  0.83241696     0.74000
O681        O  0.54856542  0.91295071  0.69330728    -0.70800
O682        O  0.52560018  0.95506804  0.65712885    -0.49500
C683        C  0.54362041  0.92584459  0.66440297     0.75400
O684        O  0.64564023  0.09698386  0.79843094    -0.66200
O685        O  0.58018093  0.06065149  0.83453443    -0.53400
C686        C  0.62772714  0.08573635  0.82727158     0.73800
Zr687      Zr  0.60917316  0.08645006  0.74424902     2.77500
O688        O  0.69990984  0.11172872  0.74395745    -0.96900
O689        O  0.64003645  0.17855595  0.74464567    -0.77700
Zr690      Zr  0.53197743  0.93117676  0.74836982     2.68000
O691        O  0.60538125  0.91776414  0.74983966    -0.79000
O692        O  0.47646641  0.83790646  0.75002780    -0.98100
Zr693      Zr  0.50519811  0.01092159  0.80384305     2.21500
Zr694      Zr  0.50268878  0.00594254  0.68848495     2.11100
O695        O  0.57210287  0.00731923  0.71672655    -2.46800
O696        O  0.56488449  0.01000775  0.77157716    -0.78800
O697        O  0.54352122  0.08807692  0.71307781    -0.71000
O698        O  0.46438670  0.92882645  0.77924852    -2.31900
O699        O  0.54505023  0.09082410  0.77540698    -2.28100
O700        O  0.46311291  0.92651288  0.71740531    -0.72700
H701        H  0.40813077  0.00569719  0.70286926     0.79300
H702        H  0.45049858  0.90081709  0.79466838     0.80400
H703        H  0.59756166  0.00660211  0.70308535     0.82600
H704        H  0.55959744  0.11997676  0.78963064     0.80200
H705        H  0.33709676  0.82572135  0.76797822     0.43200
H706        H  0.46561154  0.82826173  0.72751763     0.42200
H707        H  0.63474853  0.95108173  0.74264314     0.41900
H708        H  0.70191922  0.08553651  0.73076453     0.39800
H709        H  0.65408150  0.19061832  0.72282793     0.42900
H710        H  0.51775383  0.19313084  0.75512334     0.37700
H711        H  0.37684616  0.07617370  0.74369773     0.43800
H712        H  0.31152049  0.94143671  0.73441270     0.40300
H713        H  0.71699385  0.14373410  0.73086649     0.45200
H714        H  0.53804520  0.18902470  0.72139098     0.43900
H715        H  0.29000325  0.88242933  0.74025646     0.44000
H716        H  0.50011736  0.82461669  0.75440788     0.44400
O717        O  0.08636666  0.63575808  0.80447677    -0.74500
O718        O  0.04749839  0.57023479  0.84067094    -0.53400
C719        C  0.07415666  0.61782093  0.83333387     0.79200
O720        O  0.90612098  0.54443968  0.69664479    -0.59100
O721        O  0.94780379  0.52026693  0.66169974    -0.52100
C722        C  0.92020313  0.54016992  0.66814779     0.71300
O723        O  0.90962920  0.54697419  0.80750032    -0.73600
O724        O  0.95044371  0.52117943  0.84254165    -0.54200
C725        C  0.92285671  0.54117182  0.83606960     0.77300
O726        O  0.09243577  0.63113069  0.69430688    -0.58800
O727        O  0.04604209  0.56504796  0.66022494    -0.51900
C728        C  0.07761220  0.61228876  0.66596573     0.73900
Zr729      Zr  0.07542154  0.59933168  0.75045946     2.54700
O730        O  0.09714228  0.68919422  0.74676148    -0.79400
O731        O  0.16776271  0.63278088  0.75377989    -0.92800
Zr732      Zr  0.92077368  0.52521998  0.75219152     2.64700
O733        O  0.90645826  0.59840806  0.75264232    -0.97700
O734        O  0.82745097  0.47109811  0.75193986    -0.79800
O735        O  0.99856068  0.55808992  0.77699717    -0.83100
O736        O  0.99761966  0.56536088  0.72140078    -2.17900
O737        O  0.08717120  0.44871879  0.69645231    -0.66500
O738        O  0.04165901  0.46883206  0.66150393    -0.51100
C739        C  0.07220529  0.45221856  0.66795911     0.72200
O740        O  0.91245634  0.35662234  0.80878814    -0.59400
O741        O  0.94872457  0.42397955  0.84303142    -0.51400
C742        C  0.92489059  0.37591509  0.83718223     0.74000
O743        O  0.89778391  0.35601618  0.69877706    -0.70800
O744        O  0.94146210  0.42160467  0.66318417    -0.49500
C745        C  0.91112762  0.37434728  0.67001367     0.75400
O746        O  0.07945426  0.43959845  0.80710236    -0.66200
O747        O  0.04566609  0.47224062  0.84210318    -0.53400
C748        C  0.06900962  0.44792309  0.83564868     0.73800
Zr749      Zr  0.07118257  0.46498279  0.75203195     2.77500
O750        O  0.08703506  0.39276744  0.75149002    -0.96900
O751        O  0.16439246  0.51891716  0.75469939    -0.77700
Zr752      Zr  0.91686080  0.39078799  0.75386017     2.70100
O753        O  0.89096024  0.29969426  0.75308596    -0.79000
O754        O  0.82516810  0.35971282  0.75906801    -0.98100
Zr755      Zr  0.99731204  0.49641157  0.80919474     2.21500
Zr756      Zr  0.99479159  0.49414857  0.69482595     2.11100
O757        O  0.99318027  0.42368762  0.72276634    -2.46800
O758        O  0.99486282  0.43356631  0.77846200    -0.78800
O759        O  0.06808487  0.52942626  0.72429168    -0.71000
O760        O  0.91513595  0.45653335  0.78439326    -2.31900
O761        O  0.07824705  0.53484353  0.78260329    -2.28100
O762        O  0.92300157  0.45975565  0.72596379    -0.72700
H763        H  0.99880146  0.59171387  0.70739842     0.79300
H764        H  0.88718949  0.44314196  0.79966702     0.80400
H765        H  0.99222776  0.39741199  0.70914330     0.82600
H766        H  0.10696445  0.54875710  0.79724724     0.80200
H767        H  0.81776553  0.46382307  0.77486498     0.43200
H768        H  0.80852720  0.32982846  0.74454135     0.42200
H769        H  0.92365962  0.29927060  0.75349293     0.41900
H770        H  0.06147570  0.36778175  0.73634116     0.39800
H771        H  0.17575547  0.52591078  0.73204385     0.42900
H772        H  0.18345696  0.66994489  0.74863588     0.37700
H773        H  0.06357761  0.68785545  0.74659674     0.43800
H774        H  0.93165399  0.62348912  0.73713861     0.40300
H775        H  0.12050876  0.40615576  0.74044143     0.45200
H776        H  0.17586670  0.61813349  0.73502834     0.43900
H777        H  0.87266183  0.58574708  0.74217900     0.44000
H778        H  0.81624676  0.34435791  0.78087598     0.44400
O779        O  0.54139941  0.63346175  0.80446838    -0.74500
O780        O  0.52095236  0.56848967  0.84039442    -0.53400
C781        C  0.53777749  0.61568287  0.83326342     0.79200
O782        O  0.35997341  0.44272475  0.69551261    -0.59100
O783        O  0.42657083  0.46881227  0.66068190    -0.52100
C784        C  0.37900047  0.44876038  0.66704500     0.71300
O785        O  0.35999651  0.44892482  0.80624005    -0.73600
O786        O  0.42590861  0.47338090  0.84148968    -0.54200
C787        C  0.37848564  0.45435292  0.83488971     0.77300
O788        O  0.54654478  0.63179315  0.69393470    -0.58800
O789        O  0.52166870  0.56526964  0.65948172    -0.51900
C790        C  0.54088915  0.61298739  0.66551005     0.73900
Zr791      Zr  0.52518072  0.59873589  0.74948303     2.54700
O792        O  0.46920485  0.63570228  0.74719048    -0.79400
O793        O  0.59831056  0.68644159  0.74864788    -0.92800
Zr794      Zr  0.39331586  0.46563419  0.75056347     2.64700
O795        O  0.35395591  0.51955488  0.74864068    -0.97700
O796        O  0.30563320  0.39282021  0.75162557    -0.79800
O797        O  0.46153129  0.53026091  0.77695358    -0.83100
O798        O  0.45724636  0.53380262  0.71868150    -2.17900
O799        O  0.63804116  0.55017751  0.69709900    -0.66500
O800        O  0.57212760  0.51894657  0.66147541    -0.51100
C801        C  0.61974739  0.54301105  0.66836949     0.72200
O802        O  0.44987609  0.35472261  0.80848921    -0.59400
O803        O  0.47457417  0.42235394  0.84206823    -0.51400
C804        C  0.45472346  0.37437273  0.83665109     0.74000
O805        O  0.44905652  0.35354352  0.69767421    -0.70800
O806        O  0.47652616  0.42013173  0.66214791    -0.49500
C807        C  0.45597010  0.37238866  0.66896297     0.75400
O808        O  0.63538391  0.54077733  0.80741188    -0.66200
O809        O  0.56919134  0.51819040  0.84215804    -0.53400
C810        C  0.61656951  0.53639361  0.83586485     0.73800
Zr811      Zr  0.60321542  0.52200127  0.75161588     2.77500
O812        O  0.63553327  0.46214048  0.74934598    -0.96900
O813        O  0.69395819  0.58723083  0.75329824    -0.77700
Zr814      Zr  0.47036974  0.38805657  0.75255373     2.70100
O815        O  0.52836197  0.35344280  0.75286765    -0.79000
O816        O  0.40022062  0.29901702  0.75515280    -0.98100
Zr817      Zr  0.49775884  0.49500016  0.80853928     2.21500
Zr818      Zr  0.49865143  0.49323330  0.69383227     2.11100
O819        O  0.53885831  0.45295503  0.72113285    -2.46800
O820        O  0.53824179  0.45403356  0.78317733    -0.78800
O821        O  0.55912163  0.55474535  0.72518545    -0.71000
O822        O  0.42908728  0.42486663  0.78134684    -2.31900
O823        O  0.56704582  0.56393015  0.78033606    -2.28100
O824        O  0.43746967  0.43203607  0.72588407    -0.72700
H825        H  0.44295033  0.54767696  0.70346810     0.79300
H826        H  0.40298151  0.39934221  0.79523205     0.80400
H827        H  0.55332681  0.43876337  0.70654209     0.82600
H828        H  0.59258999  0.59023758  0.79388675     0.80200
H829        H  0.30854671  0.36434553  0.76164792     0.43200
H830        H  0.37373590  0.29742106  0.74029370     0.42200
H831        H  0.53762792  0.35381759  0.77570540     0.41900
H832        H  0.65154232  0.46800342  0.72786251     0.39800
H833        H  0.69435303  0.61932543  0.75914543     0.42900
H834        H  0.62297166  0.68611036  0.76430186     0.37700
H835        H  0.45326148  0.62904533  0.76872684     0.43800
H836        H  0.34954188  0.52382525  0.72548267     0.40300
H837        H  0.66489568  0.47641617  0.76440982     0.45200
H838        H  0.58554652  0.70760004  0.75881900     0.43900
H839        H  0.31853921  0.49692329  0.75667960     0.44000
H840        H  0.41371668  0.27874302  0.74465264     0.44400
O841        O  0.79151752  0.43591170  0.50537596    -0.74500
O842        O  0.87732648  0.49024543  0.50281596    -0.53400
C843        C  0.83747335  0.44465693  0.00389568     0.79200
O844        O  0.71333598  0.56908768  0.91336773    -0.59100
O845        O  0.65600629  0.56642208  0.94983921    -0.52100
C846        C  0.67065710  0.56547240  0.92087230     0.71300
O847        O  0.85387037  0.56678300  0.91350892    -0.73600
O848        O  0.90981792  0.56664472  0.95028874    -0.54200
C849        C  0.89374461  0.56463717  0.92126167     0.77300
O850        O  0.64388527  0.43586989  0.00718701    -0.58800
O851        O  0.61280410  0.49042198  0.00271629    -0.51900
C852        C  0.60617959  0.44425215  0.00469858     0.73900
Zr853      Zr  0.73523744  0.47076832  0.50863694     2.54700
O854        O  0.69531692  0.39180191  0.97909765    -0.79400
O855        O  0.71158670  0.42255220  0.55900140    -0.92800
Zr856      Zr  0.78581933  0.57216715  0.93778383     2.64700
O857        O  0.75255634  0.50306604  0.89869208    -0.97700
O858        O  0.81837061  0.63968979  0.89681583    -0.79800
O859        O  0.80178566  0.51826535  0.97168385    -0.83100
O860        O  0.71585850  0.51821596  0.97135766    -2.17900
O861        O  0.71890147  0.57847493  0.59143502    -0.66500
O862        O  0.65902480  0.56964112  0.55454235    -0.51100
C863        C  0.67487138  0.57166997  0.58362021     0.72200
O864        O  0.94141686  0.72496443  0.99621942    -0.59400
O865        O  0.95310442  0.65487269  0.50008278    -0.51400
C866        C  0.97059896  0.70375863  0.49837998     0.74000
O867        O  0.78244382  0.72473247  0.99571263    -0.70800
O868        O  0.70108137  0.65507410  0.99887263    -0.49500
C869        C  0.73235010  0.70398371  0.99694777     0.75400
O870        O  0.86459628  0.58545775  0.59099924    -0.66200
O871        O  0.91199628  0.57085241  0.55452789    -0.53400
C872        C  0.89990405  0.57571354  0.58348864     0.73800
Zr873      Zr  0.79423045  0.58773940  0.56680934     2.77500
O874        O  0.83216152  0.66872507  0.59568228    -0.96900
O875        O  0.77290248  0.53847689  0.61671479    -0.77700
Zr876      Zr  0.84378012  0.68848099  0.99656306     2.70100
O877        O  0.87592413  0.75592117  0.53659980    -0.79000
O878        O  0.87171093  0.74432231  0.94936665    -0.98100
Zr879      Zr  0.87513090  0.57318576  0.50219830     2.21500
Zr880      Zr  0.69787224  0.57360263  0.00191197     2.11100
O881        O  0.77222454  0.63532584  0.53170740    -2.46800
O882        O  0.86311518  0.63555980  0.53143287    -0.78800
O883        O  0.71959073  0.52649310  0.53940904    -0.71000
O884        O  0.85894365  0.62875948  0.96739537    -2.31900
O885        O  0.80687534  0.52638642  0.53919329    -2.28100
O886        O  0.76897341  0.62850121  0.96726942    -0.72700
H887        H  0.68676747  0.49498504  0.95848608     0.79300
H888        H  0.88753408  0.64771976  0.95294506     0.80400
H889        H  0.76377255  0.65687977  0.54434232     0.82600
H890        H  0.81421134  0.50579405  0.55384565     0.80200
H891        H  0.85570801  0.66077808  0.90095083     0.43200
H892        H  0.83973956  0.73406447  0.93719217     0.42200
H893        H  0.90078770  0.75078159  0.54941164     0.41900
H894        H  0.82122868  0.65844907  0.61820623     0.39800
H895        H  0.76539000  0.50371316  0.61025426     0.42900
H896        H  0.73596003  0.40965926  0.56136745     0.37700
H897        H  0.69973549  0.40305829  0.95636221     0.43800
H898        H  0.71620683  0.47993122  0.90483436     0.40300
H899        H  0.86949378  0.68113353  0.59578924     0.45200
H900        H  0.67809428  0.39143421  0.55464342     0.43900
H901        H  0.75094626  0.51936364  0.87829554     0.44000
H902        H  0.88178072  0.77887358  0.95774963     0.44400
O903        O  0.64435093  0.20932478  0.49332690    -0.74500
O904        O  0.61252682  0.12322658  0.49281634    -0.53400
C905        C  0.60635546  0.16309165  0.49270193     0.79200
O906        O  0.88413133  0.27683151  0.91873032    -0.59100
O907        O  0.91197324  0.34510369  0.95145078    -0.52100
C908        C  0.90781598  0.32523998  0.92355920     0.71300
O909        O  0.72496887  0.14976446  0.90576933    -0.73600
O910        O  0.66335242  0.09444392  0.94076073    -0.54200
C911        C  0.68103381  0.11080163  0.91226353     0.77300
O912        O  0.79116216  0.35654108  0.99972888    -0.58800
O913        O  0.87666458  0.38731003  0.00389041    -0.51900
C914        C  0.83726815  0.39410068  0.00228342     0.73900
Zr915      Zr  0.73542591  0.26499904  0.49700039     2.54700
O916        O  0.70726924  0.30209226  0.95469108    -0.79400
O917        O  0.70260202  0.29602419  0.53930443    -0.92800
Zr918      Zr  0.79661707  0.21718770  0.93309237     2.64700
O919        O  0.77803349  0.26760594  0.89481354    -0.97700
O920        O  0.82174410  0.18249927  0.88866624    -0.79800
O921        O  0.72126449  0.19917944  0.96144442    -0.83100
O922        O  0.80813711  0.28652001  0.96544937    -2.17900
O923        O  0.84542921  0.27782337  0.59116746    -0.66500
O924        O  0.90357001  0.33733809  0.55627045    -0.51100
C925        C  0.88524325  0.32111532  0.58472128     0.72200
O926        O  0.78153881  0.05869763  0.99944261    -0.59400
O927        O  0.70025181  0.04650006  0.49591329    -0.51400
C928        C  0.73139802  0.02878525  0.49749860     0.74000
O929        O  0.93992987  0.21615065  0.00135709    -0.70800
O930        O  0.95218715  0.29772979  0.00371238    -0.49500
C931        C  0.96948205  0.26618332  0.00278512     0.75400
O932        O  0.71977968  0.11756228  0.57908799    -0.66200
O933        O  0.65245403  0.09058896  0.54557474    -0.53400
C934        C  0.67167021  0.09566296  0.57386802     0.73800
Zr935      Zr  0.78149306  0.20394889  0.56384842     2.77500
O936        O  0.81658355  0.17642432  0.60752032    -0.96900
O937        O  0.72974760  0.21997126  0.60172311    -0.77700
Zr938      Zr  0.84261555  0.15619710  0.99983611     2.70100
O939        O  0.87074281  0.12252589  0.54410226    -0.79000
O940        O  0.87499074  0.12715585  0.95614091    -0.98100
Zr941      Zr  0.69739556  0.12515317  0.49444266     2.21500
Zr942      Zr  0.87444730  0.30195189  0.00268728     2.11100
O943        O  0.85607152  0.22554832  0.53368078    -2.46800
O944        O  0.76662904  0.13653318  0.52900997    -0.78800
O945        O  0.80036710  0.27881312  0.53382693    -0.71000
O946        O  0.77381848  0.14283539  0.96460948    -2.31900
O947        O  0.71343031  0.19306266  0.53010507    -2.28100
O948        O  0.86286956  0.23181061  0.96930649    -0.72700
H949        H  0.81676439  0.31659977  0.95245636     0.79300
H950        H  0.76616878  0.11441217  0.95061200     0.80400
H951        H  0.88406305  0.23334777  0.54821741     0.82600
H952        H  0.68358083  0.18551449  0.54276127     0.80200
H953        H  0.83607737  0.16263272  0.89904469     0.43200
H954        H  0.89719831  0.15877833  0.94352203     0.42200
H955        H  0.84864086  0.12021808  0.56232029     0.41900
H956        H  0.85423376  0.19518207  0.60407568     0.39800
H957        H  0.73771051  0.25557182  0.59679527     0.42900
H958        H  0.66837284  0.26657440  0.54483686     0.37700
H959        H  0.70772654  0.28415611  0.93500725     0.43800
H960        H  0.80890464  0.30235489  0.89460092     0.40300
H961        H  0.81140775  0.19180495  0.62704492     0.45200
H962        H  0.69547227  0.32117464  0.52835870     0.43900
H963        H  0.77841146  0.25311414  0.87365844     0.44000
H964        H  0.89921906  0.11828899  0.96654846     0.44400
O965        O  0.35490121  0.79069712  0.49840543    -0.74500
O966        O  0.38684775  0.87677580  0.49888867    -0.53400
C967        C  0.39289006  0.83691605  0.49855461     0.79200
O968        O  0.14103551  0.71706943  0.90955862    -0.59100
O969        O  0.08853303  0.65801064  0.94674896    -0.52100
C970        C  0.10259127  0.67368801  0.91758653     0.71300
O971        O  0.28748778  0.85821323  0.90944500    -0.73600
O972        O  0.34406104  0.91184683  0.94668628    -0.54200
C973        C  0.33020111  0.89729709  0.91750771     0.77300
O974        O  0.20720928  0.64333965  0.00018081    -0.58800
O975        O  0.12145569  0.61183150  0.99914301    -0.51900
C976        C  0.16104462  0.60538590  0.99972830     0.73900
Zr977      Zr  0.26392745  0.73432598  0.50007638     2.54700
O978        O  0.29593004  0.70030461  0.95913665    -0.79400
O979        O  0.29759036  0.70305354  0.54244154    -0.92800
Zr980      Zr  0.21195859  0.78950705  0.93348389     2.64700
O981        O  0.24488316  0.75911023  0.89072999    -0.97700
O982        O  0.17719285  0.82748333  0.89646964    -0.79800
O983        O  0.28316636  0.80401644  0.96511792    -0.83100
O984        O  0.19568120  0.71703099  0.96521951    -2.17900
O985        O  0.14543226  0.71192048  0.58810654    -0.66500
O986        O  0.09037262  0.65519264  0.55148958    -0.51100
C987        C  0.10671380  0.66876253  0.58046930     0.72200
O988        O  0.21759775  0.94132617  0.99786958    -0.59400
O989        O  0.29882293  0.95287841  0.49797365    -0.51400
C990        C  0.26758160  0.97045605  0.49798980     0.74000
O991        O  0.05906916  0.78357547  0.99679588    -0.70800
O992        O  0.04669316  0.70182069  0.99775271    -0.49500
C993        C  0.02940195  0.73340781  0.99720103     0.75400
O994        O  0.28330764  0.85882509  0.58741783    -0.66200
O995        O  0.34250602  0.91093371  0.55033553    -0.53400
C996        C  0.32695819  0.89673391  0.57947459     0.73800
Zr997      Zr  0.20913484  0.78990854  0.56370341     2.77500
O998        O  0.16583324  0.82572709  0.59438182    -0.96900
O999        O  0.23735750  0.76625808  0.61249601    -0.77700
Zr1000     Zr  0.15665872  0.84379684  0.99712944     2.70100
O1001       O  0.12330572  0.87435739  0.53971538    -0.79000
O1002       O  0.12913654  0.87434038  0.95112750    -0.98100
Zr1003     Zr  0.30217833  0.87466721  0.49842078     2.21500
Zr1004     Zr  0.12438783  0.69739551  0.99893038     2.11100
O1005       O  0.13828966  0.77045114  0.53072379    -2.46800
O1006       O  0.22928714  0.86107594  0.53013224    -0.78800
O1007       O  0.19465435  0.71736501  0.53375730    -0.71000
O1008       O  0.23019134  0.86079494  0.96550542    -2.31900
O1009       O  0.28143629  0.80380892  0.53339114    -2.28100
O1010       O  0.14039543  0.77051861  0.96591588    -0.72700
H1011       H  0.18894044  0.68833790  0.95172878     0.79300
H1012       H  0.23954955  0.89027195  0.95173220     0.80400
H1013       H  0.10884573  0.76146402  0.54418455     0.82600
H1014       H  0.30983350  0.81046588  0.54727049     0.80200
H1015       H  0.19211093  0.82719262  0.87539847     0.43200
H1016       H  0.10718999  0.84295032  0.93859050     0.42200
H1017       H  0.15414177  0.90002433  0.55142617     0.41900
H1018       H  0.15866015  0.80792804  0.61544819     0.39800
H1019       H  0.26040417  0.75388170  0.60489229     0.42900
H1020       H  0.26843502  0.68418482  0.55745336     0.37700
H1021       H  0.30765966  0.72604464  0.94148457     0.43800
H1022       H  0.23357308  0.72285502  0.89643368     0.40300
H1023       H  0.19287437  0.86160345  0.59885222     0.45200
H1024       H  0.32225707  0.73413906  0.55434658     0.43900
H1025       H  0.22445639  0.75699942  0.87154705     0.44000
H1026       H  0.10492074  0.88420288  0.96016287     0.44400
O1027       O  0.56909951  0.85780808  0.90981668    -0.74500
O1028       O  0.56719470  0.91189317  0.94698826    -0.53400
C1029       C  0.56618360  0.89724457  0.91781422     0.79200
O1030       O  0.43471786  0.64341950  0.00202950    -0.59100
O1031       O  0.48880236  0.61184952  0.99935829    -0.52100
C1032       C  0.44282121  0.60546740  0.00093972     0.71300
O1033       O  0.43477230  0.79070806  0.49995205    -0.73600
O1034       O  0.48908275  0.87672924  0.49859106    -0.54200
C1035       C  0.44334071  0.83708408  0.99871380     0.77300
O1036       O  0.57119653  0.71579096  0.90952057    -0.58800
O1037       O  0.56634295  0.65726516  0.94663591    -0.51900
C1038       C  0.56642519  0.67244280  0.91749977     0.73900
Zr1039     Zr  0.57645714  0.78946502  0.93391650     2.54700
O1040       O  0.51576397  0.75866847  0.88961601    -0.79400
O1041       O  0.65089187  0.82694881  0.89842566    -0.92800
Zr1042     Zr  0.46948297  0.73462083  0.50181218     2.64700
O1043       O  0.40159124  0.69934654  0.96082475    -0.97700
O1044       O  0.40964310  0.70620304  0.54667267    -0.79800
O1045       O  0.51979994  0.80389205  0.96547343    -0.83100
O1046       O  0.52003421  0.71717339  0.96556123    -2.17900
O1047       O  0.72344914  0.78330598  0.99669526    -0.66500
O1048       O  0.65403131  0.70156441  0.99715956    -0.51100
C1049       C  0.70290994  0.73313225  0.99668842     0.72200
O1050       O  0.57919273  0.86056320  0.58801767    -0.59400
O1051       O  0.56785515  0.91019852  0.55087967    -0.51400
C1052       C  0.57135434  0.89724224  0.58002192     0.74000
O1053       O  0.57150912  0.71317915  0.58805222    -0.70800
O1054       O  0.56590524  0.65530845  0.55105670    -0.49500
C1055       C  0.56592265  0.66963423  0.58019148     0.75400
O1056       O  0.72278702  0.94126954  0.99817661    -0.66200
O1057       O  0.65328877  0.95270666  0.49859322    -0.53400
C1058       C  0.70206063  0.97015109  0.49785199     0.73800
Zr1059     Zr  0.68621457  0.84364377  0.99758776     2.77500
O1060       O  0.75049522  0.87406225  0.53848645    -0.96900
O1061       O  0.74429777  0.87485633  0.95179006    -0.77700
Zr1062     Zr  0.58257286  0.79060710  0.56399333     2.70100
O1063       O  0.66238249  0.82600672  0.59419496    -0.79000
O1064       O  0.53275089  0.77136635  0.61333274    -0.98100
Zr1065     Zr  0.57173885  0.87461873  0.49883358     2.21500
Zr1066     Zr  0.57195197  0.69716018  0.99887671     2.11100
O1067       O  0.63208688  0.77034580  0.53002203    -2.46800
O1068       O  0.63219774  0.86114051  0.52969422    -0.78800
O1069       O  0.62933542  0.77036021  0.96613185    -0.71000
O1070       O  0.52305908  0.80433233  0.53442074    -2.31900
O1071       O  0.62959814  0.86079067  0.96597044    -2.28100
O1072       O  0.52297226  0.71757728  0.53467131    -0.72700
H1073       H  0.49770194  0.68852620  0.95212225     0.79300
H1074       H  0.50176051  0.81101478  0.54857662     0.80400
H1075       H  0.65297713  0.76129139  0.54311962     0.82600
H1076       H  0.64962690  0.89033740  0.95226113     0.80200
H1077       H  0.42532812  0.69436531  0.56311618     0.43200
H1078       H  0.50351426  0.73591117  0.61074173     0.42200
H1079       H  0.67775382  0.86381189  0.59217753     0.41900
H1080       H  0.74693987  0.84256742  0.54879010     0.39800
H1081       H  0.73629509  0.84341425  0.93976899     0.42900
H1082       H  0.66067023  0.86360264  0.89601374     0.37700
H1083       H  0.48159581  0.74181523  0.90009778     0.43800
H1084       H  0.40699105  0.67435244  0.94857317     0.40300
H1085       H  0.78363741  0.88931326  0.52684178     0.45200
H1086       H  0.63689907  0.81176461  0.87721747     0.43900
H1087       H  0.37034781  0.67785797  0.97374658     0.44000
H1088       H  0.55444145  0.76853541  0.63022412     0.44400
O1089       O  0.20714295  0.56328316  0.49982747    -0.74500
O1090       O  0.12136828  0.50865417  0.50167943    -0.53400
C1091       C  0.16098195  0.55485259  0.99976066     0.79200
O1092       O  0.28017654  0.42068463  0.91217446    -0.59100
O1093       O  0.34006028  0.42925724  0.94891835    -0.52100
C1094       C  0.32395559  0.42686680  0.91987769     0.71300
O1095       O  0.13743447  0.42050786  0.91271850    -0.73600
O1096       O  0.08598246  0.42772960  0.94978122    -0.54200
C1097       C  0.09919367  0.42532393  0.92068797     0.77300
O1098       O  0.35439861  0.56338583  0.00070182    -0.58800
O1099       O  0.38568715  0.50883819  0.00076260    -0.51900
C1100       C  0.39221504  0.55501629  0.00084472     0.73900
Zr1101     Zr  0.26318358  0.52832905  0.49929183     2.54700
O1102       O  0.29401542  0.58993064  0.95563141    -0.79400
O1103       O  0.29612796  0.59774931  0.53798129    -0.92800
Zr1104     Zr  0.20784931  0.41837849  0.93650133     2.64700
O1105       O  0.23545604  0.47953369  0.89182836    -0.97700
O1106       O  0.16981812  0.34344251  0.90184108    -0.79800
O1107       O  0.19316799  0.47607758  0.96671880    -0.83100
O1108       O  0.28056808  0.47652449  0.96639680    -2.17900
O1109       O  0.28444631  0.42587384  0.58985528    -0.66500
O1110       O  0.34163255  0.42954263  0.55281594    -0.51100
C1111       C  0.32686116  0.42910807  0.58192082     0.72200
O1112       O  0.05722681  0.27433424  0.00249822    -0.59400
O1113       O  0.04571647  0.34381452  0.50344266    -0.51400
C1114       C  0.02809055  0.29486987  0.50359018     0.74000
O1115       O  0.21591295  0.27458520  0.00122863    -0.70800
O1116       O  0.29731047  0.34434763  0.00087662    -0.49500
C1117       C  0.26603500  0.29540101  0.00097334     0.75400
O1118       O  0.14062851  0.42324063  0.59091422    -0.66200
O1119       O  0.08787765  0.42940190  0.55406852    -0.53400
C1120       C  0.10207116  0.42789613  0.58314193     0.73800
Zr1121     Zr  0.21040954  0.42077233  0.56617135     2.77500
O1122       O  0.17549320  0.34621960  0.60197720    -0.96900
O1123       O  0.24122945  0.48200102  0.61002329    -0.77700
Zr1124     Zr  0.15475914  0.31095899  0.00229340     2.70100
O1125       O  0.12664137  0.24947228  0.54731169    -0.79000
O1126       O  0.12232474  0.24943842  0.95865183    -0.98100
Zr1127     Zr  0.12360687  0.42560206  0.50193072     2.21500
Zr1128     Zr  0.30055718  0.42580393  0.00105175     2.11100
O1129       O  0.22869179  0.36786652  0.53412817    -2.46800
O1130       O  0.13856189  0.36753129  0.53450014    -0.78800
O1131       O  0.28182791  0.47786252  0.53433087    -0.71000
O1132       O  0.13738229  0.36681439  0.96995886    -2.31900
O1133       O  0.19541783  0.47778870  0.53475716    -2.28100
O1134       O  0.22742854  0.36667823  0.96960169    -0.72700
H1135       H  0.30896929  0.49823670  0.95239630     0.79300
H1136       H  0.10781862  0.34613351  0.95668003     0.80400
H1137       H  0.23790747  0.34766434  0.54786295     0.82600
H1138       H  0.18905961  0.49986295  0.54837502     0.80200
H1139       H  0.19041893  0.35513728  0.88187370     0.43200
H1140       H  0.15252397  0.25977161  0.94463964     0.42200
H1141       H  0.10267102  0.25635768  0.55962134     0.41900
H1142       H  0.18407899  0.36102170  0.62375492     0.39800
H1143       H  0.26361851  0.51576510  0.59953486     0.42900
H1144       H  0.32107962  0.62841464  0.52558174     0.37700
H1145       H  0.28045547  0.56866806  0.93617192     0.43800
H1146       H  0.27275114  0.50285947  0.89506577     0.40300
H1147       H  0.13775120  0.33075643  0.60043843     0.45200
H1148       H  0.31744640  0.59038715  0.55283303     0.43900
H1149       H  0.23314815  0.45918823  0.87270514     0.44000
H1150       H  0.11562536  0.21655686  0.96862528     0.44400
O1151       O  0.42479504  0.15049897  0.90531252    -0.74500
O1152       O  0.43021674  0.09464406  0.94045003    -0.53400
C1153       C  0.42984890  0.11157611  0.91192370     0.79200
O1154       O  0.56403349  0.35624354  0.99975075    -0.59100
O1155       O  0.50958169  0.38724501  0.00393710    -0.52100
C1156       C  0.55569969  0.39385609  0.00267345     0.71300
O1157       O  0.56438946  0.20939765  0.49403445    -0.73600
O1158       O  0.50986789  0.12340317  0.49236704    -0.54200
C1159       C  0.55596577  0.16350746  0.99156725     0.77300
O1160       O  0.39033224  0.27684976  0.91871508    -0.58800
O1161       O  0.43306838  0.34547798  0.95078580    -0.51900
C1162       C  0.41730927  0.32525444  0.92297937     0.73900
Zr1163     Zr  0.41663785  0.21579899  0.93243814     2.54700
O1164       O  0.48215421  0.26656675  0.89259250    -0.79400
O1165       O  0.35106771  0.17994192  0.89087662    -0.92800
Zr1166     Zr  0.52886535  0.26498431  0.49583897     2.64700
O1167       O  0.58628843  0.29736440  0.94854336    -0.97700
O1168       O  0.60000832  0.29972543  0.53341077    -0.79800
O1169       O  0.47514338  0.19834791  0.96015404    -0.83100
O1170       O  0.47572992  0.28590267  0.96405905    -2.17900
O1171       O  0.27503842  0.21620376  0.00032563    -0.66500
O1172       O  0.34440515  0.29787964  0.00186084    -0.51100
C1173       C  0.29553591  0.26632778  0.00105788     0.72200
O1174       O  0.39617267  0.11811258  0.57870358    -0.59400
O1175       O  0.43643881  0.09060572  0.54579685    -0.51400
C1176       C  0.42195369  0.09567848  0.57390641     0.74000
O1177       O  0.42875910  0.27769773  0.59017297    -0.70800
O1178       O  0.43080782  0.33743889  0.55509951    -0.49500
C1179       C  0.43166950  0.32076068  0.58361107     0.75400
O1180       O  0.27612331  0.05855027  0.99971979    -0.66200
O1181       O  0.34566564  0.04666646  0.49571783    -0.53400
C1182       C  0.29688203  0.02901898  0.49759482     0.73800
Zr1183     Zr  0.31232150  0.15597167  0.00022204     2.77500
O1184       O  0.25298046  0.12353075  0.54494746    -0.96900
O1185       O  0.24817332  0.12473135  0.95780556    -0.77700
Zr1186     Zr  0.42333997  0.20519450  0.56347916     2.70100
O1187       O  0.36729743  0.18148158  0.61014205    -0.79000
O1188       O  0.49359824  0.22278933  0.59990014    -0.98100
Zr1189     Zr  0.42689630  0.12532988  0.49436254     2.21500
Zr1190     Zr  0.42638747  0.30199507  0.00204163     2.11100
O1191       O  0.36939575  0.22601120  0.53340494    -2.46800
O1192       O  0.36978643  0.13725351  0.52906177    -0.78800
O1193       O  0.36681663  0.23121775  0.96934144    -0.71000
O1194       O  0.47972554  0.19370045  0.52964060    -2.31900
O1195       O  0.36659542  0.14192823  0.96459952    -2.28100
O1196       O  0.47896774  0.27959512  0.53313454    -0.72700
H1197       H  0.49694913  0.31564349  0.95076125     0.79300
H1198       H  0.50207370  0.18606038  0.54229585     0.80400
H1199       H  0.34935523  0.23393775  0.54787560     0.82600
H1200       H  0.34553735  0.11321659  0.95083879     0.80200
H1201       H  0.58594105  0.27815978  0.55295497     0.43200
H1202       H  0.51852839  0.25986992  0.59663455     0.42200
H1203       H  0.33336535  0.17289866  0.60129034     0.41900
H1204       H  0.25964804  0.15471850  0.55678575     0.39800
H1205       H  0.26485200  0.14955614  0.93991088     0.42900
H1206       H  0.33245209  0.14226202  0.89474228     0.37700
H1207       H  0.50753401  0.25487613  0.89459043     0.43800
H1208       H  0.59352791  0.33305777  0.94498307     0.40300
H1209       H  0.21872216  0.11086922  0.53516489     0.45200
H1210       H  0.37029331  0.18490313  0.87067950     0.43900
H1211       H  0.61897212  0.30129500  0.95667018     0.44000
H1212       H  0.47920784  0.22075246  0.62153362     0.44400
C1213       C  0.43989742  0.33731106  0.64160657    -0.15600
C1214       C  0.43882898  0.35361182  0.61130089    -0.30800
H1215       H  0.43052679  0.29787553  0.64636417     0.13400
H1216       H  0.44683147  0.39264058  0.60666028     0.14000
C1217       C  0.43311964  0.35852330  0.89430453    -0.15600
C1218       C  0.43462848  0.34010727  0.86495930    -0.30800
H1219       H  0.44818794  0.39943074  0.89780650     0.13400
H1220       H  0.42067560  0.29932968  0.86167794     0.14000
C1221       C  0.63988951  0.56243932  0.61066535    -0.15600
C1222       C  0.65564786  0.56298620  0.64126903    -0.30800
H1223       H  0.60006896  0.55044856  0.60542080     0.13400
H1224       H  0.69572800  0.57614823  0.64655247     0.14000
C1225       C  0.65150062  0.55344205  0.86332857    -0.15600
C1226       C  0.63627771  0.55669928  0.89348238    -0.30800
H1227       H  0.69055218  0.56213833  0.85857390     0.13400
H1228       H  0.59754114  0.54897585  0.89815614     0.14000
C1229       C  0.55706092  0.64864323  0.63791133    -0.15600
C1230       C  0.55670671  0.63374461  0.60721111    -0.30800
H1231       H  0.56829552  0.68831505  0.64312695     0.13400
H1232       H  0.54644127  0.59436850  0.60191054     0.14000
C1233       C  0.55399899  0.65168204  0.86012308    -0.15600
C1234       C  0.55761141  0.63752506  0.89062358    -0.30800
H1235       H  0.56191381  0.69046994  0.85465809     0.13400
H1236       H  0.55045396  0.59900108  0.89601538     0.14000
C1237       C  0.34421201  0.43266718  0.63955264    -0.15600
C1238       C  0.36072621  0.43494092  0.60898802    -0.30800
H1239       H  0.30444649  0.42123283  0.64456532     0.13400
H1240       H  0.40013754  0.44515143  0.60393363     0.14000
C1241       C  0.35825341  0.43512960  0.89263123    -0.15600
C1242       C  0.34312604  0.43757411  0.86223992    -0.30800
H1243       H  0.39716721  0.44360146  0.89759283     0.13400
H1244       H  0.30399096  0.42842110  0.85722123     0.14000
C1245       C  0.92411124  0.56505525  0.61095093    -0.15600
C1246       C  0.90420137  0.55985998  0.64087804    -0.30800
H1247       H  0.95441323  0.55629215  0.60635402     0.13400
H1248       H  0.87412568  0.56893814  0.64555762     0.14000
C1249       C  0.92042233  0.55722199  0.89408925    -0.15600
C1250       C  0.90465915  0.55772938  0.86354861    -0.30800
H1251       H  0.95007821  0.54759903  0.89911813     0.13400
H1252       H  0.87587676  0.56861292  0.85854313     0.14000
C1253       C  0.89083061  0.33927480  0.64262944    -0.15600
C1254       C  0.90980026  0.35454250  0.61248317    -0.30800
H1255       H  0.85927040  0.30054692  0.64730122     0.13400
H1256       H  0.94214834  0.39288283  0.60798367     0.14000
C1257       C  0.91163769  0.34110219  0.86519892    -0.15600
C1258       C  0.92805180  0.35918482  0.89519121    -0.30800
H1259       H  0.88681654  0.30010628  0.86124181     0.13400
H1260       H  0.95186909  0.40023947  0.89925834     0.14000
C1261       C  0.07486691  0.43475601  0.61023623    -0.15600
C1262       C  0.09174362  0.43662338  0.64069863    -0.30800
H1263       H  0.04372380  0.44218525  0.60511174     0.13400
H1264       H  0.12239754  0.42844881  0.64582779     0.14000
C1265       C  0.07157822  0.43177198  0.89360757    -0.15600
C1266       C  0.08553782  0.42916732  0.86307635    -0.30800
H1267       H  0.04410598  0.44421957  0.89858936     0.13400
H1268       H  0.11220798  0.41564201  0.85808087     0.14000
C1269       C  0.09806022  0.64731781  0.63812544    -0.15600
C1270       C  0.08133658  0.63277282  0.60760907    -0.30800
H1271       H  0.12822140  0.68645017  0.64308770     0.13400
H1272       H  0.05060669  0.59396637  0.60255987     0.14000
C1273       C  0.09233957  0.65402061  0.86008578    -0.15600
C1274       C  0.07576684  0.63910329  0.89066455    -0.30800
H1275       H  0.12171765  0.69343183  0.85457030     0.13400
H1276       H  0.04574603  0.59995257  0.89606892     0.14000
C1277       C  0.34691545  0.90501874  0.63699427    -0.15600
C1278       C  0.36161005  0.92275198  0.60651954    -0.30800
H1279       H  0.30802718  0.87444008  0.64227312     0.13400
H1280       H  0.40026977  0.95384918  0.60133899     0.14000
C1281       C  0.36563685  0.92533693  0.89068182    -0.15600
C1282       C  0.35098179  0.91075089  0.85993820    -0.30800
H1283       H  0.40442019  0.95572575  0.89613493     0.13400
H1284       H  0.31185500  0.88094790  0.85464088     0.14000
C1285       C  0.55996639  0.90619868  0.63752439    -0.15600
C1286       C  0.56253925  0.92328366  0.60692773    -0.30800
H1287       H  0.56890441  0.87609808  0.64304856     0.13400
H1288       H  0.55410170  0.95373838  0.60147488     0.14000
C1289       C  0.55938716  0.92561623  0.89086001    -0.15600
C1290       C  0.56009108  0.91135681  0.86013872    -0.30800
H1291       H  0.55087071  0.95592536  0.89616106     0.13400
H1292       H  0.56967018  0.88172824  0.85498994     0.14000
C1293       C  0.63767751  0.07791839  0.60207285    -0.15600
C1294       C  0.65563187  0.09744177  0.63161962    -0.30800
H1295       H  0.59695678  0.05184724  0.59815281     0.13400
H1296       H  0.69623362  0.12446487  0.63526482     0.14000
C1297       C  0.64798068  0.08541803  0.88452955    -0.15600
C1298       C  0.66374745  0.10317788  0.85427665    -0.30800
H1299       H  0.60882433  0.05488404  0.88918306     0.13400
H1300       H  0.70321097  0.13280864  0.84941348     0.14000
C1301       C  0.43757583  0.07747274  0.60232061    -0.15600
C1302       C  0.43900776  0.09675125  0.63187418    -0.30800
H1303       H  0.45230457  0.05148035  0.59851242     0.13400
H1304       H  0.42527481  0.12362280  0.63546166     0.14000
C1305       C  0.43859899  0.08683861  0.88435024    -0.15600
C1306       C  0.44078110  0.10468740  0.85407735    -0.30800
H1307       H  0.44722476  0.05631501  0.88914420     0.13400
H1308       H  0.43086908  0.13425156  0.84907464     0.14000
loop_ 
_geom_bond_atom_site_label_1 
_geom_bond_atom_site_label_2 
_geom_bond_distance 
_geom_bond_site_symmetry_2 
_ccdc_geom_bond_type 
O1          Zr13   2.469       .  S
O1            C3   1.292       .  A
O2          Zr39   2.364       .  S
O2            C3   1.273       .  A
C3          C652   1.469       .  S
O4          Zr16   2.472       .  S
O4            C6   1.292       .  A
O5          Zr40   2.364   1_565  S
O5            C6   1.273       .  A
C6          C623   1.464       .  S
O7          Zr16   2.470       .  S
O7            C9   1.292       .  A
O8          Zr39   2.382   1_565  S
O8            C9   1.275       .  A
C9          C628   1.474       .  S
O10         Zr13   2.487       .  S
O10          C12   1.295       .  A
O11         Zr40   2.370       .  S
O11          C12   1.274       .  A
C12         C648   1.475       .  S
Zr13         O14   2.436       .  S
Zr13         O15   2.437       .  S
Zr13         O19   2.289       .  S
Zr13         O20   2.370       .  S
Zr13         O43   2.387       .  S
Zr13         O45   2.386       .  S
O14          H57   0.990       .  S
O15          H56   0.990       .  S
O15          H60   0.990       .  S
Zr16         O17   2.440       .  S
Zr16         O18   2.438       .  S
Zr16         O19   2.281   1_565  S
Zr16         O46   2.285       .  S
Zr16         O20   2.368   1_565  S
Zr16         O44   2.378       .  S
O17          H58   0.990       .  S
O17          H61   0.991       .  S
O18          H51   0.990       .  S
O19         Zr39   2.262       .  S
O20         Zr40   2.380       .  S
O20          H47   0.965       .  S
O21         Zr33   2.490       .  S
O21          C23   1.295       .  A
O22         Zr40   2.367       .  S
O22          C23   1.274       .  A
C23         C640   1.475       .  S
O24         Zr36   2.468       .  S
O24          C26   1.292       .  A
O25         Zr39   2.378   1_565  S
O25          C26   1.274       .  A
C26         C636   1.471       .  S
O27         Zr36   2.471       .  S
O27          C29   1.292       .  A
O28         Zr40   2.368   1_565  S
O28          C29   1.274       .  A
C29         C631   1.466       .  S
O30         Zr33   2.462       .  S
O30          C32   1.290       .  A
O31         Zr39   2.364       .  S
O31          C32   1.273       .  A
C32         C644   1.466       .  S
Zr33         O34   2.438       .  S
Zr33         O35   2.437       .  S
Zr33         O42   2.289       .  S
Zr33         O41   2.367       .  S
Zr33         O45   2.390       .  S
Zr33         O43   2.385       .  S
O34          H54   0.990       .  S
O34          H59   0.991       .  S
O35          H55   0.990       .  S
Zr36         O37   2.439       .  S
Zr36         O38   2.437       .  S
Zr36         O42   2.280   1_565  S
Zr36         O46   2.284       .  S
Zr36         O41   2.368   1_565  S
Zr36         O44   2.377       .  S
O37          H53   0.990       .  S
O38          H52   0.990       .  S
O38          H62   0.990       .  S
Zr39         O42   2.262       .  S
Zr39         O44   2.378   1_545  S
Zr39         O45   2.382       .  S
Zr40         O46   2.273   1_545  S
Zr40         O41   2.378       .  S
Zr40         O43   2.377       .  S
O41          H49   0.964       .  S
O44          H48   0.966       .  S
O45          H50   0.966       .  S
O63         Zr75   2.464       .  S
O63          C65   1.291       .  A
O64        Zr101   2.370   1_455  S
O64          C65   1.274       .  A
C65         C619   1.467       .  S
O66         Zr78   2.475       .  S
O66          C68   1.292       .  A
O67        Zr102   2.366       .  S
O67          C68   1.273       .  A
C68         C592   1.464       .  S
O69         Zr78   2.473       .  S
O69          C71   1.292       .  A
O70        Zr101   2.356       .  S
O70          C71   1.271       .  A
C71         C596   1.466       .  S
O72         Zr75   2.478       .  S
O72          C74   1.294       .  A
O73        Zr102   2.376   1_455  S
O73          C74   1.274       .  A
C74         C615   1.472       .  S
Zr75         O76   2.439       .  S
Zr75         O77   2.438       .  S
Zr75         O81   2.284   1_455  S
Zr75        O105   2.283       .  S
Zr75         O82   2.366   1_455  S
Zr75        O107   2.381       .  S
O76         H119   0.990       .  S
O77         H118   0.990       .  S
O77         H122   0.990       .  S
Zr78         O79   2.442       .  S
Zr78         O80   2.439       .  S
Zr78         O81   2.280       .  S
Zr78        O108   2.290       .  S
Zr78         O82   2.376       .  S
Zr78        O106   2.384       .  S
O79         H120   0.990       .  S
O79         H123   0.991       .  S
O80         H113   0.991       .  S
O81        Zr101   2.261       .  S
O82        Zr102   2.381       .  S
O82         H109   0.965       .  S
O83         Zr95   2.476       .  S
O83          C85   1.292       .  A
O84        Zr102   2.371   1_455  S
O84          C85   1.273       .  A
C85         C608   1.468       .  S
O86         Zr98   2.477       .  S
O86          C88   1.293       .  A
O87        Zr101   2.371       .  S
O87          C88   1.274       .  A
C88         C603   1.476       .  S
O89         Zr98   2.472       .  S
O89          C91   1.292       .  A
O90        Zr102   2.365       .  S
O90          C91   1.273       .  A
C91         C599   1.467       .  S
O92         Zr95   2.464       .  S
O92          C94   1.291       .  A
O93        Zr101   2.359   1_455  S
O93          C94   1.272       .  A
C94         C612   1.463       .  S
Zr95         O96   2.441       .  S
Zr95         O97   2.438       .  S
Zr95        O104   2.281   1_455  S
Zr95        O105   2.284       .  S
Zr95        O103   2.374   1_455  S
Zr95        O107   2.383       .  S
O96         H116   0.990       .  S
O96         H121   0.991       .  S
O97         H117   0.990       .  S
Zr98         O99   2.439       .  S
Zr98        O100   2.438       .  S
Zr98        O104   2.279       .  S
Zr98        O108   2.292       .  S
Zr98        O103   2.376       .  S
Zr98        O106   2.382       .  S
O99         H115   0.990       .  S
O100        H114   0.990       .  S
O100        H124   0.990       .  S
Zr101       O104   2.261       .  S
Zr101       O106   2.380       .  S
Zr101       O107   2.381   1_655  S
Zr102       O105   2.270   1_655  S
Zr102       O108   2.276       .  S
Zr102       O103   2.384       .  S
O103        H111   0.965       .  S
O106        H110   0.966       .  S
O107        H112   0.966       .  S
O125       Zr137   2.472       .  S
O125        C127   1.292       .  A
O126       Zr163   2.366       .  S
O126        C127   1.273       .  A
C127        C579   1.465       .  S
O128       Zr140   2.462       .  S
O128        C130   1.291       .  A
O129       Zr164   2.366       .  S
O129        C130   1.273       .  A
C130        C583   1.465       .  S
O131       Zr140   2.476       .  S
O131        C133   1.293       .  A
O132       Zr163   2.365       .  S
O132        C133   1.273       .  A
C133        C588   1.466       .  S
O134       Zr137   2.463       .  S
O134        C136   1.291       .  A
O135       Zr164   2.377       .  S
O135        C136   1.275       .  A
C136        C575   1.469       .  S
Zr137       O138   2.437       .  S
Zr137       O139   2.438       .  S
Zr137       O167   2.283       .  S
Zr137       O143   2.384       .  S
Zr137       O144   2.382       .  S
Zr137       O169   2.371       .  S
O138        H181   0.990       .  S
O139        H180   0.990       .  S
O139        H184   0.991       .  S
Zr140       O141   2.437       .  S
Zr140       O142   2.435       .  S
Zr140       O170   2.285       .  S
Zr140       O144   2.382       .  S
Zr140       O143   2.383       .  S
Zr140       O168   2.367       .  S
O141        H182   0.990       .  S
O141        H185   0.990       .  S
O142        H175   0.990       .  S
O143       Zr163   2.378       .  S
O144       Zr164   2.376       .  S
O144        H171   0.966       .  S
O145       Zr157   2.472       .  S
O145        C147   1.292       .  A
O146       Zr164   2.363       .  S
O146        C147   1.272       .  A
C147        C568   1.468       .  S
O148       Zr160   2.481       .  S
O148        C150   1.293       .  A
O149       Zr163   2.367       .  S
O149        C150   1.274       .  A
C150        C564   1.473       .  S
O151       Zr160   2.468       .  S
O151        C153   1.291       .  A
O152       Zr164   2.366       .  S
O152        C153   1.273       .  A
C153        C559   1.469       .  S
O154       Zr157   2.482       .  S
O154        C156   1.294       .  A
O155       Zr163   2.359       .  S
O155        C156   1.272       .  A
C156        C571   1.465       .  S
Zr157       O158   2.438       .  S
Zr157       O159   2.440       .  S
Zr157       O166   2.287       .  S
Zr157       O167   2.280       .  S
Zr157       O165   2.383       .  S
Zr157       O169   2.368       .  S
O158        H178   0.990       .  S
O158        H183   0.990       .  S
O159        H179   0.990       .  S
Zr160       O161   2.436       .  S
Zr160       O162   2.442       .  S
Zr160       O166   2.288       .  S
Zr160       O170   2.283       .  S
Zr160       O165   2.386       .  S
Zr160       O168   2.366       .  S
O161        H177   0.990       .  S
O162        H176   0.990       .  S
O162        H186   0.990       .  S
Zr163       O166   2.271       .  S
Zr163       O168   2.376       .  S
Zr163       O169   2.381       .  S
Zr164       O167   2.260       .  S
Zr164       O170   2.261       .  S
Zr164       O165   2.382       .  S
O165        H173   0.966       .  S
O168        H172   0.964       .  S
O169        H174   0.965       .  S
O187       Zr199   2.400       .  S
O187        C843   1.282       .  A
O188       Zr225   2.522       .  S
O188        C843   1.298       .  A
C189        O841   1.283       .  A
C189        O842   1.298       .  A
C189        C260   1.516       .  S
O190       Zr202   2.365       .  S
O190        C192   1.273       .  A
O191       Zr226   2.462       .  S
O191        C192   1.293       .  A
C192        C572   1.473       .  S
O193       Zr202   2.365       .  S
O193        C195   1.274       .  A
O194       Zr879   2.465       .  S
O194        C195   1.293       .  A
C195        C595   1.473       .  S
O196       Zr853   2.398       .  S
O196        C198   1.282       .  A
O197       Zr226   2.521       .  S
O197        C198   1.298       .  A
C198        C502   1.515       .  S
Zr199       O850   2.400       .  S
Zr199       O201   2.435       .  S
Zr199       O854   2.429   1_554  S
Zr199       O229   2.343       .  S
Zr199       O231   2.340       .  S
Zr199       O859   2.360   1_554  S
Zr199       O860   2.357   1_554  S
O200       Zr853   2.430       .  S
O200        H243   0.990       .  S
O201        H242   0.990       .  S
O201        H246   0.990       .  S
Zr202       O203   2.437       .  S
Zr202       O204   2.437       .  S
Zr202       O206   2.360       .  S
Zr202       O205   2.363       .  S
Zr202       O230   2.351       .  S
Zr202       O232   2.353       .  S
O203        H244   0.990       .  S
O203        H247   0.990       .  S
O204        H237   0.990       .  S
O205       Zr853   2.361       .  S
O205       Zr879   2.372       .  S
O206       Zr226   2.373       .  S
O206       Zr853   2.355       .  S
O206        H233   0.966       .  S
O207       Zr219   2.376       .  S
O207        C209   1.276       .  A
O208       Zr880   2.457       .  S
O208        C209   1.293       .  A
C209        C567   1.472       .  S
O210       Zr222   2.571       .  S
O210        C866   1.312       .  A
O211       Zr225   2.398   1_556  S
O211        C212   1.287       .  A
C212        O864   1.311       .  A
C212        C993   1.525   1_655  S
O213       Zr222   2.572       .  S
O213        C215   1.312       .  A
O214       Zr226   2.397       .  S
O214        C215   1.287       .  A
C215        C395   1.526       .  S
O216       Zr219   2.375       .  S
O216        C218   1.276       .  A
O217       Zr225   2.459       .  S
O217        C218   1.293       .  A
C218        C591   1.471       .  S
Zr219       O220   2.433       .  S
Zr219       O221   2.434       .  S
Zr219       O227   2.348       .  S
Zr219       O228   2.350       .  S
Zr219       O231   2.369       .  S
Zr219       O229   2.368       .  S
O220        H240   0.990       .  S
O220        H245   0.990       .  S
O221        H241   0.990       .  S
Zr222       O224   2.434       .  S
Zr222       O877   2.434       .  S
Zr222       O232   2.398       .  S
Zr222       O230   2.399       .  S
Zr222       O882   2.398       .  S
Zr222       O881   2.398       .  S
O223       Zr876   2.434   1_554  S
O223        H239   0.990       .  S
O224        H238   0.990       .  S
O224        H248   0.990       .  S
Zr225       O848   2.463   1_554  S
Zr225       O228   2.418       .  S
Zr225       O231   2.380       .  S
Zr225       O859   2.370   1_554  S
Zr225       O884   2.415   1_554  S
Zr226       O862   2.458       .  S
Zr226       O232   2.411       .  S
Zr226       O881   2.423       .  S
Zr226       O883   2.374       .  S
O227       Zr876   2.398   1_554  S
O227       Zr880   2.424       .  S
O227        H235   0.966       .  S
O228       Zr876   2.397   1_554  S
O229       Zr880   2.374       .  S
O230       Zr879   2.414       .  S
O230        H234   0.966       .  S
O231        H236   0.966       .  S
O249       Zr261   2.395       .  S
O249        C251   1.282       .  A
O250       Zr287   2.528       .  S
O250        C251   1.300       .  A
C251       C1159   1.518       .  S
O252       Zr264   2.396       .  S
O252        C254   1.275       .  A
O253       Zr288   2.456       .  S
O253        C254   1.290       .  A
C254        C604   1.473       .  S
O255       Zr264   2.382       .  S
O255        C257   1.277       .  A
O256       Zr941   2.450       .  S
O256        C257   1.292       .  A
C257        C643   1.469       .  S
O258       Zr915   2.388       .  S
O258        C260   1.280       .  A
O259       Zr288   2.529       .  S
O259        C260   1.300       .  A
Zr261       O912   2.389       .  S
Zr261       O263   2.433   1_556  S
Zr261       O916   2.431       .  S
Zr261       O291   2.351   1_556  S
Zr261       O293   2.351   1_556  S
Zr261       O921   2.351       .  S
Zr261       O922   2.350       .  S
O262       Zr915   2.431       .  S
O262        H305   0.990       .  S
O263        H304   0.990       .  S
O263        H308   0.989       .  S
Zr264       O265   2.438       .  S
Zr264       O266   2.434       .  S
Zr264       O268   2.368       .  S
Zr264       O267   2.368       .  S
Zr264       O292   2.362       .  S
Zr264       O294   2.359       .  S
O265        H306   0.989       .  S
O265        H309   0.990       .  S
O266        H299   0.990       .  S
O267       Zr915   2.352       .  S
O267       Zr941   2.373       .  S
O268       Zr288   2.384       .  S
O268       Zr915   2.350       .  S
O268        H295   0.966       .  S
O269       Zr281   2.381       .  S
O269        C271   1.277       .  A
O270       Zr942   2.452       .  S
O270        C271   1.292       .  A
C271        C600   1.470       .  S
O272       Zr284   2.558       .  S
O272        C928   1.309       .  A
O273       Zr287   2.402       .  S
O273        C274   1.289       .  A
C274        O926   1.309       .  A
C274        C404   1.522   1_545  S
O275       Zr284   2.560       .  S
O275        C277   1.309       .  A
O276       Zr288   2.405       .  S
O276        C277   1.289       .  A
C277       C1114   1.524   1_655  S
O278       Zr281   2.390       .  S
O278        C280   1.273       .  A
O279       Zr287   2.457   1_554  S
O279        C280   1.289       .  A
C280        C639   1.471       .  S
Zr281       O282   2.439       .  S
Zr281       O283   2.435       .  S
Zr281       O289   2.363       .  S
Zr281       O290   2.355       .  S
Zr281       O293   2.367       .  S
Zr281       O291   2.367       .  S
O282        H302   0.990       .  S
O282        H307   0.990       .  S
O283        H303   0.990       .  S
Zr284       O286   2.433       .  S
Zr284       O939   2.433       .  S
Zr284       O294   2.387       .  S
Zr284       O292   2.402       .  S
Zr284       O944   2.390       .  S
Zr284       O943   2.402       .  S
O285       Zr938   2.433   1_554  S
O285        H301   0.990       .  S
O286        H300   0.990       .  S
O286        H310   0.990       .  S
Zr287       O910   2.448       .  S
Zr287       O290   2.406   1_556  S
Zr287       O293   2.379   1_556  S
Zr287       O921   2.372       .  S
Zr287       O946   2.421       .  S
Zr288       O924   2.459       .  S
Zr288       O294   2.411       .  S
Zr288       O943   2.420       .  S
Zr288       O945   2.368       .  S
O289       Zr938   2.403   1_554  S
O289       Zr942   2.419       .  S
O289        H297   0.966       .  S
O290       Zr938   2.386   1_554  S
O291       Zr942   2.367       .  S
O292       Zr941   2.421       .  S
O292        H296   0.966       .  S
O293        H298   0.966       .  S
O311       Zr323   2.392       .  S
O311        C313   1.281       .  A
O312       Zr349   2.519       .  S
O312        C313   1.298       .  A
C313       C1035   1.512       .  S
O314       Zr326   2.380       .  S
O314        C316   1.277       .  A
O315       Zr350   2.457       .  S
O315        C316   1.292       .  A
C316        C620   1.472       .  S
O317       Zr326   2.387       .  S
O317        C319   1.278       .  A
O318      Zr1003   2.466       .  S
O318        C319   1.294       .  A
C319        C627   1.481       .  S
O320       Zr977   2.389       .  S
O320        C322   1.280       .  A
O321       Zr350   2.523       .  S
O321        C322   1.298       .  A
C322        C437   1.515       .  S
Zr323       O974   2.392   1_556  S
Zr323       O325   2.434   1_556  S
Zr323       O978   2.433       .  S
Zr323       O353   2.351   1_556  S
Zr323       O355   2.348   1_556  S
Zr323       O983   2.352       .  S
Zr323       O984   2.347       .  S
O324       Zr977   2.432       .  S
O324        H367   0.990       .  S
O325        H366   0.990       .  S
O325        H370   0.990       .  S
Zr326       O327   2.438       .  S
Zr326       O328   2.434       .  S
Zr326       O330   2.367       .  S
Zr326       O329   2.363       .  S
Zr326       O354   2.354       .  S
Zr326       O356   2.359       .  S
O327        H368   0.990       .  S
O327        H371   0.990       .  S
O328        H361   0.990       .  S
O329       Zr977   2.352       .  S
O329      Zr1003   2.371       .  S
O330       Zr350   2.378       .  S
O330       Zr977   2.348       .  S
O330        H357   0.966       .  S
O331       Zr343   2.375       .  S
O331        C333   1.275       .  A
O332      Zr1004   2.474   1_554  S
O332        C333   1.295       .  A
C333        C616   1.480       .  S
O334       Zr346   2.560       .  S
O334        C990   1.309       .  A
O335       Zr349   2.401       .  S
O335        C336   1.288       .  A
C336        O988   1.309       .  A
C336        C528   1.521   1_565  S
O337       Zr346   2.564       .  S
O337        C339   1.310       .  A
O338       Zr350   2.406       .  S
O338        C339   1.289       .  A
C339        C866   1.526   1_455  S
O340       Zr343   2.376       .  S
O340        C342   1.276       .  A
O341       Zr349   2.452   1_554  S
O341        C342   1.291       .  A
C342        C624   1.469       .  S
Zr343       O344   2.435       .  S
Zr343       O345   2.434       .  S
Zr343       O351   2.350       .  S
Zr343       O352   2.350       .  S
Zr343       O355   2.367       .  S
Zr343       O353   2.367       .  S
O344        H364   0.990       .  S
O344        H369   0.990       .  S
O345        H365   0.990       .  S
Zr346       O348   2.433       .  S
Zr346      O1001   2.435       .  S
Zr346       O356   2.396       .  S
Zr346       O354   2.403       .  S
Zr346      O1006   2.399       .  S
Zr346      O1005   2.402       .  S
O347      Zr1000   2.434   1_554  S
O347        H363   0.990       .  S
O348        H362   0.990       .  S
O348        H372   0.990       .  S
Zr349       O972   2.459       .  S
Zr349       O352   2.414   1_556  S
Zr349       O355   2.377   1_556  S
Zr349       O983   2.370       .  S
Zr349      O1008   2.416       .  S
Zr350       O986   2.465       .  S
Zr350       O356   2.413       .  S
Zr350      O1005   2.419       .  S
Zr350      O1007   2.371       .  S
O351      Zr1000   2.402   1_554  S
O351      Zr1004   2.419   1_554  S
O351        H359   0.966       .  S
O352      Zr1000   2.397   1_554  S
O353      Zr1004   2.372   1_554  S
O354      Zr1003   2.416       .  S
O354        H358   0.966       .  S
O355        H360   0.966       .  S
O373       Zr385   2.383       .  S
O373        C375   1.277       .  A
O374      Zr1065   2.464       .  S
O374        C375   1.293       .  A
C375        C635   1.479       .  S
O376      Zr1042   2.388       .  S
O376        C378   1.280       .  A
O377       Zr412   2.522       .  S
O377        C378   1.298       .  A
C378        C446   1.513       .  S
O379       Zr388   2.389   1_556  S
O379       C1035   1.280       .  A
O380       Zr411   2.519       .  S
O380       C1035   1.298       .  A
C381       O1033   1.280       .  A
C381       O1034   1.297       .  A
C381        C967   1.510       .  S
O382       Zr385   2.372       .  S
O382        C384   1.276       .  A
O383       Zr412   2.462       .  S
O383        C384   1.293       .  A
C384        C580   1.471       .  S
Zr385       O386   2.435       .  S
Zr385       O387   2.435       .  S
Zr385       O391   2.362       .  S
Zr385       O392   2.365       .  S
Zr385       O415   2.359       .  S
Zr385       O417   2.351       .  S
O386        H429   0.990       .  S
O387        H428   0.990       .  S
O387        H432   0.990       .  S
Zr388      O1030   2.389       .  S
Zr388       O390   2.432       .  S
Zr388      O1043   2.431   1_554  S
Zr388       O416   2.342       .  S
Zr388       O418   2.351       .  S
Zr388      O1046   2.346   1_554  S
Zr388      O1045   2.354   1_554  S
O389      Zr1042   2.434       .  S
O389        H430   0.990       .  S
O389        H433   0.989       .  S
O390        H423   0.990       .  S
O391      Zr1042   2.355       .  S
O391      Zr1065   2.369       .  S
O392       Zr412   2.375       .  S
O392      Zr1042   2.346       .  S
O392        H419   0.966       .  S
O393       Zr405   2.565       .  S
O393        C395   1.310       .  A
O394       Zr412   2.407       .  S
O394        C395   1.290       .  A
O396       Zr408   2.378       .  S
O396        C398   1.277       .  A
O397       Zr411   2.456   1_554  S
O397        C398   1.292       .  A
C398        C632   1.470       .  S
O399       Zr408   2.383       .  S
O399        C401   1.277       .  A
O400      Zr1066   2.462   1_554  S
O400        C401   1.293       .  A
C401        C576   1.477       .  S
O402       Zr405   2.563       .  S
O402       C1058   1.310       .  A
O403       Zr411   2.400       .  S
O403        C404   1.288       .  A
C404       O1056   1.310       .  A
Zr405       O407   2.434       .  S
Zr405      O1060   2.434       .  S
Zr405       O417   2.401       .  S
Zr405       O415   2.399       .  S
Zr405      O1067   2.399       .  S
Zr405      O1068   2.398       .  S
O406      Zr1059   2.435   1_554  S
O406        H426   0.990       .  S
O406        H431   0.990       .  S
O407        H427   0.990       .  S
Zr408       O409   2.435       .  S
Zr408       O410   2.439       .  S
Zr408       O414   2.356       .  S
Zr408       O413   2.354       .  S
Zr408       O418   2.365       .  S
Zr408       O416   2.365       .  S
O409        H425   0.990       .  S
O410        H424   0.990       .  S
O410        H434   0.990       .  S
Zr411      O1028   2.462       .  S
Zr411       O414   2.414   1_556  S
Zr411       O416   2.377   1_556  S
Zr411      O1045   2.372       .  S
Zr411      O1071   2.415       .  S
Zr412      O1054   2.462       .  S
Zr412       O415   2.413       .  S
Zr412      O1067   2.420       .  S
Zr412      O1072   2.376       .  S
O413      Zr1059   2.402   1_554  S
O413      Zr1066   2.421   1_554  S
O413        H421   0.966       .  S
O414      Zr1059   2.397   1_554  S
O416        H420   0.966       .  S
O417      Zr1065   2.415       .  S
O417        H422   0.966       .  S
O418      Zr1066   2.374   1_554  S
O435       Zr447   2.391       .  S
O435       C1091   1.281       .  A
O436       Zr473   2.525       .  S
O436       C1091   1.299   1_554  A
C437       O1089   1.281       .  A
C437       O1090   1.299       .  A
O438       Zr450   2.375       .  S
O438        C440   1.275       .  A
O439       Zr474   2.461       .  S
O439        C440   1.293       .  A
C440        C587   1.472       .  S
O441       Zr450   2.369       .  S
O441        C443   1.275       .  A
O442      Zr1127   2.456       .  S
O442        C443   1.292       .  A
C443        C611   1.469       .  S
O444      Zr1101   2.392       .  S
O444        C446   1.281       .  A
O445       Zr474   2.520       .  S
O445        C446   1.298       .  A
Zr447      O1098   2.396   1_556  S
Zr447       O449   2.431   1_556  S
Zr447      O1102   2.433       .  S
Zr447       O477   2.355   1_556  S
Zr447       O479   2.350   1_556  S
Zr447      O1107   2.350       .  S
Zr447      O1108   2.345       .  S
O448      Zr1101   2.436       .  S
O448        H491   0.990       .  S
O449        H490   0.989       .  S
O449        H494   0.990       .  S
Zr450       O451   2.437       .  S
Zr450       O452   2.435       .  S
Zr450       O454   2.363       .  S
Zr450       O453   2.366       .  S
Zr450       O478   2.352       .  S
Zr450       O480   2.351       .  S
O451        H492   0.990       .  S
O451        H495   0.990       .  S
O452        H485   0.990       .  S
O453      Zr1101   2.348       .  S
O453      Zr1127   2.371       .  S
O454       Zr474   2.375       .  S
O454      Zr1101   2.345       .  S
O454        H481   0.966       .  S
O455       Zr467   2.373       .  S
O455        C457   1.276       .  A
O456      Zr1128   2.454       .  S
O456        C457   1.291       .  A
C457        C584   1.471       .  S
O458       Zr470   2.567       .  S
O458       C1114   1.311       .  A
O459       Zr473   2.393       .  S
O459        C460   1.286       .  A
C460       O1112   1.311       .  A
C460        C931   1.522   1_455  S
O461       Zr470   2.567       .  S
O461        C463   1.311       .  A
O462       Zr474   2.400       .  S
O462        C463   1.288       .  A
C463        C519   1.525       .  S
O464       Zr467   2.380       .  S
O464        C466   1.277       .  A
O465       Zr473   2.461       .  S
O465        C466   1.293       .  A
C466        C607   1.475       .  S
Zr467       O468   2.434       .  S
Zr467       O469   2.434       .  S
Zr467       O475   2.352       .  S
Zr467       O476   2.352       .  S
Zr467       O479   2.363       .  S
Zr467       O477   2.368       .  S
O468        H488   0.990       .  S
O468        H493   0.990       .  S
O469        H489   0.990       .  S
Zr470       O472   2.433       .  S
Zr470      O1125   2.434       .  S
Zr470       O480   2.396       .  S
Zr470       O478   2.396       .  S
Zr470      O1130   2.401       .  S
Zr470      O1129   2.399       .  S
O471      Zr1124   2.433       .  S
O471        H487   0.990       .  S
O472        H486   0.990       .  S
O472        H496   0.990       .  S
Zr473      O1096   2.456   1_554  S
Zr473       O476   2.412       .  S
Zr473       O479   2.373       .  S
Zr473      O1107   2.372   1_554  S
Zr473      O1132   2.418   1_554  S
Zr474      O1110   2.456       .  S
Zr474       O480   2.412       .  S
Zr474      O1129   2.417       .  S
Zr474      O1131   2.373       .  S
O475      Zr1124   2.397       .  S
O475      Zr1128   2.417       .  S
O475        H483   0.966       .  S
O476      Zr1124   2.401       .  S
O477      Zr1128   2.375       .  S
O478      Zr1127   2.419       .  S
O478        H482   0.966       .  S
O479        H484   0.966       .  S
O497       Zr509   2.385       .  S
O497        C499   1.277       .  A
O498      Zr1189   2.453       .  S
O498        C499   1.292       .  A
C499        C651   1.471       .  S
O500      Zr1166   2.387       .  S
O500        C502   1.280       .  A
O501       Zr536   2.528       .  S
O501        C502   1.300       .  A
O503       Zr512   2.395       .  S
O503       C1159   1.282       .  A
O504       Zr535   2.529       .  S
O504       C1159   1.300       .  A
C505       O1157   1.281       .  A
C505       O1158   1.300       .  A
C505        C905   1.516       .  S
O506       Zr509   2.394       .  S
O506        C508   1.274       .  A
O507       Zr536   2.446       .  S
O507        C508   1.288       .  A
C508        C563   1.467       .  S
Zr509       O510   2.435       .  S
Zr509       O511   2.438       .  S
Zr509       O515   2.367       .  S
Zr509       O516   2.367       .  S
Zr509       O539   2.357       .  S
Zr509       O541   2.362       .  S
O510        H553   0.990       .  S
O511        H552   0.990       .  S
O511        H556   0.990       .  S
Zr512      O1154   2.389       .  S
Zr512       O514   2.427   1_556  S
Zr512      O1167   2.434       .  S
Zr512       O540   2.353   1_556  S
Zr512       O542   2.358   1_556  S
Zr512      O1170   2.345       .  S
Zr512      O1169   2.347       .  S
O513      Zr1166   2.435       .  S
O513        H554   0.990       .  S
O513        H557   0.989       .  S
O514        H547   0.990       .  S
O515      Zr1166   2.347       .  S
O515      Zr1189   2.368       .  S
O516       Zr536   2.383       .  S
O516      Zr1166   2.344       .  S
O516        H543   0.966       .  S
O517       Zr529   2.562       .  S
O517        C519   1.310       .  A
O518       Zr536   2.406       .  S
O518        C519   1.289       .  A
O520       Zr532   2.394       .  S
O520        C522   1.273       .  A
O521       Zr535   2.454   1_554  S
O521        C522   1.289       .  A
C522        C647   1.472       .  S
O523       Zr532   2.386       .  S
O523        C525   1.278       .  A
O524      Zr1190   2.453       .  S
O524        C525   1.292       .  A
C525        C560   1.471       .  S
O526       Zr529   2.557       .  S
O526       C1182   1.309       .  A
O527       Zr535   2.401       .  S
O527        C528   1.289       .  A
C528       O1180   1.309       .  A
Zr529       O531   2.434       .  S
Zr529      O1184   2.435       .  S
Zr529       O541   2.401       .  S
Zr529       O539   2.387       .  S
Zr529      O1191   2.403       .  S
Zr529      O1192   2.389       .  S
O530      Zr1183   2.435       .  S
O530        H550   0.990       .  S
O530        H555   0.990       .  S
O531        H551   0.990       .  S
Zr532       O533   2.434       .  S
Zr532       O534   2.434       .  S
Zr532       O538   2.358       .  S
Zr532       O537   2.364       .  S
Zr532       O542   2.365       .  S
Zr532       O540   2.366       .  S
O533        H549   0.990       .  S
O534        H548   0.990       .  S
O534        H558   0.990       .  S
Zr535      O1152   2.448       .  S
Zr535       O538   2.410   1_556  S
Zr535       O540   2.381   1_556  S
Zr535      O1169   2.371       .  S
Zr535      O1195   2.423       .  S
Zr536      O1178   2.447       .  S
Zr536       O539   2.410       .  S
Zr536      O1191   2.419       .  S
Zr536      O1196   2.370       .  S
O537      Zr1183   2.404       .  S
O537      Zr1190   2.418       .  S
O537        H545   0.966       .  S
O538      Zr1183   2.390       .  S
O540        H544   0.966       .  S
O541      Zr1189   2.421       .  S
O541        H546   0.966       .  S
O542      Zr1190   2.369       .  S
C559        C560   1.357       .  D
C559        H561   1.087       .  S
C560        H562   1.086       .  S
C563        C564   1.357       .  D
C563        H565   1.086       .  S
C564        H566   1.087       .  S
C567        C568   1.359       .  D
C567        H569   1.086       .  S
C568        H570   1.086       .  S
C571        C572   1.361       .  D
C571        H573   1.086       .  S
C572        H574   1.086       .  S
C575        C576   1.358       .  D
C575        H577   1.086       .  S
C576        H578   1.086       .  S
C579        C580   1.358       .  D
C579        H581   1.087       .  S
C580        H582   1.086       .  S
C583        C584   1.358       .  D
C583        H585   1.087       .  S
C584        H586   1.086       .  S
C587        C588   1.360       .  D
C587        H589   1.086       .  S
C588        H590   1.086       .  S
C591        C592   1.359       .  D
C591        H593   1.086       .  S
C592        H594   1.086       .  S
C595        C596   1.360       .  D
C595        H597   1.086       .  S
C596        H598   1.087       .  S
C599        C600   1.358       .  D
C599        H601   1.087       .  S
C600        H602   1.086       .  S
C603        C604   1.358       .  D
C603        H605   1.086       .  S
C604        H606   1.085       .  S
C607        C608   1.359       .  D
C607        H609   1.086       .  S
C608        H610   1.086       .  S
C611        C612   1.357       .  D
C611        H613   1.086       .  S
C612        H614   1.087       .  S
C615        C616   1.361       .  D
C615        H617   1.086       .  S
C616        H618   1.086       .  S
C619        C620   1.357       .  D
C619        H621   1.087       .  S
C620        H622   1.086       .  S
C623        C624   1.358       .  D
C623        H625   1.086       .  S
C624        H626   1.086       .  S
C627        C628   1.359       .  D
C627        H629   1.086       .  S
C628        H630   1.086       .  S
C631        C632   1.358       .  D
C631        H633   1.086       .  S
C632        H634   1.086       .  S
C635        C636   1.359       .  D
C635        H637   1.086       .  S
C636        H638   1.087       .  S
C639        C640   1.359       .  D
C639        H641   1.086       .  S
C640        H642   1.086       .  S
C643        C644   1.357       .  D
C643        H645   1.086       .  S
C644        H646   1.087       .  S
C647        C648   1.359       .  D
C647        H649   1.086       .  S
C648        H650   1.086       .  S
C651        C652   1.358       .  D
C651        H653   1.087       .  S
C652        H654   1.086       .  S
O655       Zr667   2.461       .  S
O655        C657   1.290       .  A
O656       Zr693   2.368       .  S
O656        C657   1.274       .  A
C657       C1306   1.467       .  S
O658       Zr670   2.477       .  S
O658        C660   1.293       .  A
O659       Zr694   2.359   1_565  S
O659        C660   1.273       .  A
C660       C1277   1.464       .  S
O661       Zr670   2.466       .  S
O661        C663   1.292       .  A
O662       Zr693   2.381   1_565  S
O662        C663   1.275       .  A
C663       C1282   1.471       .  S
O664       Zr667   2.485       .  S
O664        C666   1.295       .  A
O665       Zr694   2.371       .  S
O665        C666   1.275       .  A
C666       C1302   1.475       .  S
Zr667       O668   2.436       .  S
Zr667       O669   2.435       .  S
Zr667       O673   2.287       .  S
Zr667       O674   2.366       .  S
Zr667       O697   2.382       .  S
Zr667       O699   2.387       .  S
O668        H711   0.990       .  S
O669        H710   0.990       .  S
O669        H714   0.990       .  S
Zr670       O671   2.438       .  S
Zr670       O672   2.437       .  S
Zr670       O673   2.282   1_565  S
Zr670       O674   2.367   1_565  S
Zr670       O698   2.379       .  S
Zr670       O700   2.383       .  S
O671        H712   0.990       .  S
O671        H715   0.991       .  S
O672        H705   0.990       .  S
O673       Zr693   2.258       .  S
O674       Zr694   2.377       .  S
O674        H701   0.964       .  S
O675       Zr687   2.492       .  S
O675        C677   1.295       .  A
O676       Zr694   2.363       .  S
O676        C677   1.274       .  A
C677       C1294   1.474       .  S
O678       Zr690   2.465       .  S
O678        C680   1.292       .  A
O679       Zr693   2.379   1_565  S
O679        C680   1.275       .  A
C680       C1290   1.470       .  S
O681       Zr690   2.476       .  S
O681        C683   1.293       .  A
O682       Zr694   2.370   1_565  S
O682        C683   1.275       .  A
C683       C1285   1.467       .  S
O684       Zr687   2.462       .  S
O684        C686   1.290       .  A
O685       Zr693   2.366       .  S
O685        C686   1.274       .  A
C686       C1298   1.467       .  S
Zr687       O688   2.439       .  S
Zr687       O689   2.435       .  S
Zr687       O696   2.287       .  S
Zr687       O695   2.364       .  S
Zr687       O699   2.387       .  S
Zr687       O697   2.381       .  S
O688        H708   0.990       .  S
O688        H713   0.991       .  S
O689        H709   0.990       .  S
Zr690       O691   2.435       .  S
Zr690       O692   2.437       .  S
Zr690       O696   2.281   1_565  S
Zr690       O695   2.368   1_565  S
Zr690       O700   2.382       .  S
Zr690       O698   2.381       .  S
O691        H707   0.990       .  S
O692        H706   0.990       .  S
O692        H716   0.990       .  S
Zr693       O696   2.258       .  S
Zr693       O698   2.374   1_545  S
Zr693       O699   2.380       .  S
Zr694       O695   2.376       .  S
Zr694       O697   2.375       .  S
Zr694       O700   2.379   1_545  S
O695        H703   0.964       .  S
O698        H702   0.966       .  S
O699        H704   0.966       .  S
O717       Zr729   2.462       .  S
O717        C719   1.290       .  A
O718       Zr755   2.367   1_455  S
O718        C719   1.273       .  A
C719       C1273   1.466       .  S
O720       Zr732   2.473       .  S
O720        C722   1.292       .  A
O721       Zr756   2.366       .  S
O721        C722   1.273       .  A
C722       C1246   1.464       .  S
O723       Zr732   2.473       .  S
O723        C725   1.293       .  A
O724       Zr755   2.357       .  S
O724        C725   1.271       .  A
C725       C1250   1.466       .  S
O726       Zr729   2.476       .  S
O726        C728   1.293       .  A
O727       Zr756   2.377   1_455  S
O727        C728   1.274       .  A
C728       C1269   1.471       .  S
Zr729       O730   2.439       .  S
Zr729       O731   2.438       .  S
Zr729       O735   2.285   1_455  S
Zr729       O759   2.285       .  S
Zr729       O736   2.366   1_455  S
Zr729       O761   2.380       .  S
O730        H773   0.990       .  S
O731        H772   0.990       .  S
O731        H776   0.990       .  S
Zr732       O733   2.441       .  S
Zr732       O734   2.438       .  S
Zr732       O735   2.282       .  S
Zr732       O762   2.288       .  S
Zr732       O736   2.375       .  S
Zr732       O760   2.383       .  S
O733        H774   0.990       .  S
O733        H777   0.991       .  S
O734        H767   0.990       .  S
O735       Zr755   2.261       .  S
O736       Zr756   2.380       .  S
O736        H763   0.965       .  S
O737       Zr749   2.471       .  S
O737        C739   1.291       .  A
O738       Zr756   2.367   1_455  S
O738        C739   1.273       .  A
C739       C1262   1.466       .  S
O740       Zr752   2.477       .  S
O740        C742   1.293       .  A
O741       Zr755   2.371       .  S
O741        C742   1.274       .  A
C742       C1257   1.476       .  S
O743       Zr752   2.477       .  S
O743        C745   1.293       .  A
O744       Zr756   2.365       .  S
O744        C745   1.273       .  A
C745       C1253   1.470       .  S
O746       Zr749   2.464       .  S
O746        C748   1.291       .  A
O747       Zr755   2.356   1_455  S
O747        C748   1.272       .  A
C748       C1266   1.462       .  S
Zr749       O750   2.441       .  S
Zr749       O751   2.438       .  S
Zr749       O758   2.280   1_455  S
Zr749       O759   2.285       .  S
Zr749       O757   2.372   1_455  S
Zr749       O761   2.381       .  S
O750        H770   0.990       .  S
O750        H775   0.991       .  S
O751        H771   0.990       .  S
Zr752       O753   2.439       .  S
Zr752       O754   2.438       .  S
Zr752       O758   2.279       .  S
Zr752       O762   2.289       .  S
Zr752       O757   2.377       .  S
Zr752       O760   2.381       .  S
O753        H769   0.990       .  S
O754        H768   0.990       .  S
O754        H778   0.990       .  S
Zr755       O758   2.261       .  S
Zr755       O760   2.378       .  S
Zr755       O761   2.380   1_655  S
Zr756       O759   2.271   1_655  S
Zr756       O762   2.274       .  S
Zr756       O757   2.383       .  S
O757        H765   0.965       .  S
O760        H764   0.966       .  S
O761        H766   0.966       .  S
O779       Zr791   2.473       .  S
O779        C781   1.292       .  A
O780       Zr817   2.372       .  S
O780        C781   1.274       .  A
C781       C1233   1.467       .  S
O782       Zr794   2.465       .  S
O782        C784   1.291       .  A
O783       Zr818   2.357       .  S
O783        C784   1.271       .  A
C784       C1237   1.463       .  S
O785       Zr794   2.477       .  S
O785        C787   1.293       .  A
O786       Zr817   2.361       .  S
O786        C787   1.273       .  A
C787       C1242   1.465       .  S
O788       Zr791   2.468       .  S
O788        C790   1.292       .  A
O789       Zr818   2.377       .  S
O789        C790   1.274       .  A
C790       C1229   1.471       .  S
Zr791       O792   2.438       .  S
Zr791       O793   2.441       .  S
Zr791       O797   2.286       .  S
Zr791       O821   2.279       .  S
Zr791       O798   2.380       .  S
Zr791       O823   2.369       .  S
O792        H835   0.990       .  S
O793        H834   0.990       .  S
O793        H838   0.991       .  S
Zr794       O795   2.438       .  S
Zr794       O796   2.440       .  S
Zr794       O797   2.285       .  S
Zr794       O824   2.283       .  S
Zr794       O798   2.381       .  S
Zr794       O822   2.363       .  S
O795        H836   0.990       .  S
O795        H839   0.990       .  S
O796        H829   0.990       .  S
O797       Zr817   2.272       .  S
O798       Zr818   2.379       .  S
O798        H825   0.966       .  S
O799       Zr811   2.464       .  S
O799        C801   1.291       .  A
O800       Zr818   2.364       .  S
O800        C801   1.273       .  A
C801       C1222   1.466       .  S
O802       Zr814   2.484       .  S
O802        C804   1.294       .  A
O803       Zr817   2.370       .  S
O803        C804   1.274       .  A
C804       C1218   1.475       .  S
O805       Zr814   2.469       .  S
O805        C807   1.291       .  A
O806       Zr818   2.364       .  S
O806        C807   1.273       .  A
C807       C1213   1.467       .  S
O808       Zr811   2.477       .  S
O808        C810   1.293       .  A
O809       Zr817   2.359       .  S
O809        C810   1.272       .  A
C810       C1225   1.464       .  S
Zr811       O812   2.436       .  S
Zr811       O813   2.435       .  S
Zr811       O821   2.284       .  S
Zr811       O819   2.381       .  S
Zr811       O820   2.383       .  S
Zr811       O823   2.369       .  S
O812        H832   0.990       .  S
O812        H837   0.990       .  S
O813        H833   0.990       .  S
Zr814       O815   2.437       .  S
Zr814       O816   2.438       .  S
Zr814       O824   2.287       .  S
Zr814       O820   2.387       .  S
Zr814       O819   2.387       .  S
Zr814       O822   2.370       .  S
O815        H831   0.990       .  S
O816        H830   0.990       .  S
O816        H840   0.990       .  S
Zr817       O820   2.376       .  S
Zr817       O822   2.378       .  S
Zr817       O823   2.377       .  S
Zr818       O821   2.256       .  S
Zr818       O824   2.264       .  S
Zr818       O819   2.377       .  S
O819        H827   0.966       .  S
O822        H826   0.964       .  S
O823        H828   0.965       .  S
O841       Zr853   2.400       .  S
O842       Zr879   2.522       .  S
C843        C914   1.516       .  S
O844       Zr856   2.363       .  S
O844        C846   1.273       .  A
O845       Zr880   2.463   1_556  S
O845        C846   1.293       .  A
C846       C1226   1.473       .  S
O847       Zr856   2.364       .  S
O847        C849   1.273       .  A
O848        C849   1.293       .  A
C849       C1249   1.472       .  S
O850        C852   1.283       .  A
O851       Zr880   2.525       .  S
O851        C852   1.299       .  A
C852       C1156   1.516       .  S
Zr853       O855   2.435       .  S
Zr853       O883   2.345       .  S
Zr853       O885   2.339       .  S
O854        H897   0.990       .  S
O855        H896   0.990       .  S
O855        H900   0.989       .  S
Zr856       O857   2.436       .  S
Zr856       O858   2.437       .  S
Zr856       O860   2.360       .  S
Zr856       O859   2.361       .  S
Zr856       O884   2.351       .  S
Zr856       O886   2.352       .  S
O857        H898   0.990       .  S
O857        H901   0.990       .  S
O858        H891   0.990       .  S
O860       Zr880   2.372   1_556  S
O860        H887   0.966       .  S
O861       Zr873   2.376       .  S
O861        C863   1.276       .  A
O862        C863   1.292       .  A
C863       C1221   1.472       .  S
O864       Zr876   2.569       .  S
O865       Zr879   2.398       .  S
O865        C866   1.288       .  A
O867       Zr876   2.569       .  S
O867        C869   1.311       .  A
O868       Zr880   2.400   1_556  S
O868        C869   1.288       .  A
C869       C1049   1.525       .  S
O870       Zr873   2.373       .  S
O870        C872   1.275       .  A
O871       Zr879   2.461       .  S
O871        C872   1.293       .  A
C872       C1245   1.471       .  S
Zr873       O874   2.434       .  S
Zr873       O875   2.434       .  S
Zr873       O881   2.350       .  S
Zr873       O882   2.351       .  S
Zr873       O885   2.368       .  S
Zr873       O883   2.369       .  S
O874        H894   0.990       .  S
O874        H899   0.990       .  S
O875        H895   0.990       .  S
Zr876       O878   2.434       .  S
Zr876       O886   2.400       .  S
Zr876       O884   2.401       .  S
O877        H893   0.990       .  S
O878        H892   0.990       .  S
O878        H902   0.990       .  S
Zr879       O882   2.418       .  S
Zr879       O885   2.378       .  S
Zr880       O886   2.412   1_554  S
O881        H889   0.966       .  S
O884        H888   0.966       .  S
O885        H890   0.966       .  S
O903       Zr915   2.394       .  S
O903        C905   1.282       .  A
O904       Zr941   2.525       .  S
O904        C905   1.299       .  A
O906       Zr918   2.399       .  S
O906        C908   1.275       .  A
O907       Zr942   2.452   1_556  S
O907        C908   1.289       .  A
C908       C1258   1.472       .  S
O909       Zr918   2.386       .  S
O909        C911   1.278       .  A
O910        C911   1.291       .  A
C911       C1297   1.469       .  S
O912        C914   1.280   1_556  A
O913       Zr942   2.530       .  S
O913        C914   1.301       .  A
Zr915       O917   2.433       .  S
Zr915       O945   2.351       .  S
Zr915       O947   2.349       .  S
O916        H959   0.990       .  S
O917        H958   0.990       .  S
O917        H962   0.989       .  S
Zr918       O919   2.438       .  S
Zr918       O920   2.434       .  S
Zr918       O922   2.366       .  S
Zr918       O921   2.367       .  S
Zr918       O946   2.364       .  S
Zr918       O948   2.358       .  S
O919        H960   0.989       .  S
O919        H963   0.990       .  S
O920        H953   0.990       .  S
O922       Zr942   2.382   1_556  S
O922        H949   0.965       .  S
O923       Zr935   2.382       .  S
O923        C925   1.276       .  A
O924        C925   1.293       .  A
C925       C1254   1.472       .  S
O926       Zr938   2.559       .  S
O927       Zr941   2.405       .  S
O927        C928   1.289       .  A
C928       C1058   1.522   1_545  S
O929       Zr938   2.555   1_554  S
O929        C931   1.308       .  A
O930       Zr942   2.405       .  S
O930        C931   1.289       .  A
O932       Zr935   2.392       .  S
O932        C934   1.273       .  A
O933       Zr941   2.454       .  S
O933        C934   1.289       .  A
C934       C1293   1.471       .  S
Zr935       O936   2.438       .  S
Zr935       O937   2.435       .  S
Zr935       O943   2.362       .  S
Zr935       O944   2.356       .  S
Zr935       O947   2.366       .  S
Zr935       O945   2.368       .  S
O936        H956   0.990       .  S
O936        H961   0.990       .  S
O937        H957   0.990       .  S
Zr938       O940   2.434       .  S
Zr938       O948   2.388       .  S
Zr938       O946   2.400       .  S
O939        H955   0.990       .  S
O940        H954   0.990       .  S
O940        H964   0.990       .  S
Zr941       O944   2.410       .  S
Zr941       O947   2.381       .  S
Zr942       O948   2.410   1_554  S
O943        H951   0.966       .  S
O946        H950   0.966       .  S
O947        H952   0.966       .  S
O965       Zr977   2.390       .  S
O965        C967   1.281       .  A
O966      Zr1003   2.516       .  S
O966        C967   1.297       .  A
O968       Zr980   2.377       .  S
O968        C970   1.276       .  A
O969      Zr1004   2.460       .  S
O969        C970   1.293       .  A
C970       C1274   1.472       .  S
O971       Zr980   2.386       .  S
O971        C973   1.278       .  A
O972        C973   1.292       .  A
C973       C1281   1.478       .  S
O974        C976   1.281   1_554  A
O975      Zr1004   2.524       .  S
O975        C976   1.299       .  A
C976       C1091   1.515       .  S
Zr977       O979   2.436       .  S
Zr977      O1007   2.349       .  S
Zr977      O1009   2.347       .  S
O978       H1021   0.990       .  S
O979       H1020   0.990       .  S
O979       H1024   0.990       .  S
Zr980       O981   2.438       .  S
Zr980       O982   2.434       .  S
Zr980       O984   2.367       .  S
Zr980       O983   2.361       .  S
Zr980      O1008   2.353       .  S
Zr980      O1010   2.358       .  S
O981       H1022   0.990       .  S
O981       H1025   0.990       .  S
O982       H1015   0.990       .  S
O984      Zr1004   2.379       .  S
O984       H1011   0.966       .  S
O985       Zr997   2.378       .  S
O985        C987   1.276       .  A
O986        C987   1.294       .  A
C987       C1270   1.478       .  S
O988      Zr1000   2.559       .  S
O989      Zr1003   2.399       .  S
O989        C990   1.288       .  A
C990       C1182   1.520   1_565  S
O991      Zr1000   2.562       .  S
O991        C993   1.310       .  A
O992      Zr1004   2.407       .  S
O992        C993   1.290       .  A
O994       Zr997   2.373       .  S
O994        C996   1.275       .  A
O995      Zr1003   2.460       .  S
O995        C996   1.293       .  A
C996       C1278   1.470       .  S
Zr997       O998   2.435       .  S
Zr997       O999   2.435       .  S
Zr997      O1005   2.350       .  S
Zr997      O1006   2.353       .  S
Zr997      O1009   2.366       .  S
Zr997      O1007   2.364       .  S
O998       H1018   0.990       .  S
O998       H1023   0.990       .  S
O999       H1019   0.990       .  S
Zr1000     O1002   2.434       .  S
Zr1000     O1010   2.396       .  S
Zr1000     O1008   2.401       .  S
O1001      H1017   0.990       .  S
O1002      H1016   0.990       .  S
O1002      H1026   0.990       .  S
Zr1003     O1006   2.415       .  S
Zr1003     O1009   2.378       .  S
Zr1004     O1010   2.414       .  S
O1005      H1013   0.966       .  S
O1008      H1012   0.966       .  S
O1009      H1014   0.966       .  S
O1027     Zr1039   2.383       .  S
O1027      C1029   1.277       .  A
O1028      C1029   1.293       .  A
C1029      C1289   1.478       .  S
O1030      C1032   1.280       .  A
O1031     Zr1066   2.528       .  S
O1031      C1032   1.299   1_556  A
C1032      C1100   1.516       .  S
O1033     Zr1042   2.385       .  S
O1034     Zr1065   2.518       .  S
O1036     Zr1039   2.375       .  S
O1036      C1038   1.276       .  A
O1037     Zr1066   2.461       .  S
O1037      C1038   1.293       .  A
C1038      C1234   1.472       .  S
Zr1039     O1040   2.433       .  S
Zr1039     O1041   2.436       .  S
Zr1039     O1045   2.364       .  S
Zr1039     O1046   2.365       .  S
Zr1039     O1069   2.356       .  S
Zr1039     O1071   2.353       .  S
O1040      H1083   0.990       .  S
O1041      H1082   0.990       .  S
O1041      H1086   0.990       .  S
Zr1042     O1044   2.433       .  S
Zr1042     O1070   2.342       .  S
Zr1042     O1072   2.351       .  S
O1043      H1084   0.990       .  S
O1043      H1087   0.989       .  S
O1044      H1077   0.990       .  S
O1046     Zr1066   2.375       .  S
O1046      H1073   0.966       .  S
O1047     Zr1059   2.563       .  S
O1047      C1049   1.310       .  A
O1048     Zr1066   2.407       .  S
O1048      C1049   1.289       .  A
O1050     Zr1062   2.383       .  S
O1050      C1052   1.277       .  A
O1051     Zr1065   2.457       .  S
O1051      C1052   1.292       .  A
C1052      C1286   1.472       .  S
O1053     Zr1062   2.387       .  S
O1053      C1055   1.277       .  A
O1054      C1055   1.293       .  A
C1055      C1230   1.478       .  S
O1056     Zr1059   2.562       .  S
O1057     Zr1065   2.397       .  S
O1057      C1058   1.287       .  A
Zr1059     O1061   2.434       .  S
Zr1059     O1071   2.399       .  S
Zr1059     O1069   2.399       .  S
O1060      H1080   0.990       .  S
O1060      H1085   0.990       .  S
O1061      H1081   0.990       .  S
Zr1062     O1063   2.435       .  S
Zr1062     O1064   2.438       .  S
Zr1062     O1068   2.354       .  S
Zr1062     O1067   2.352       .  S
Zr1062     O1072   2.369       .  S
Zr1062     O1070   2.369       .  S
O1063      H1079   0.990       .  S
O1064      H1078   0.990       .  S
O1064      H1088   0.990       .  S
Zr1065     O1068   2.416       .  S
Zr1065     O1070   2.377       .  S
Zr1066     O1069   2.413       .  S
O1067      H1075   0.966       .  S
O1070      H1074   0.966       .  S
O1071      H1076   0.966       .  S
O1089     Zr1101   2.391       .  S
O1090     Zr1127   2.527       .  S
O1092     Zr1104   2.373       .  S
O1092      C1094   1.275       .  A
O1093     Zr1128   2.458   1_556  S
O1093      C1094   1.292       .  A
C1094      C1241   1.471       .  S
O1095     Zr1104   2.365       .  S
O1095      C1097   1.275       .  A
O1096      C1097   1.292       .  A
C1097      C1265   1.468       .  S
O1098      C1100   1.282       .  A
O1099     Zr1128   2.523       .  S
O1099      C1100   1.298       .  A
Zr1101     O1103   2.431       .  S
Zr1101     O1131   2.355       .  S
Zr1101     O1133   2.349       .  S
O1102      H1145   0.990       .  S
O1103      H1144   0.989       .  S
O1103      H1148   0.990       .  S
Zr1104     O1105   2.438       .  S
Zr1104     O1106   2.435       .  S
Zr1104     O1108   2.363       .  S
Zr1104     O1107   2.365       .  S
Zr1104     O1132   2.350       .  S
Zr1104     O1134   2.351       .  S
O1105      H1146   0.990       .  S
O1105      H1149   0.990       .  S
O1106      H1139   0.990       .  S
O1108     Zr1128   2.374   1_556  S
O1108      H1135   0.966       .  S
O1109     Zr1121   2.368       .  S
O1109      C1111   1.275       .  A
O1110      C1111   1.292       .  A
C1111      C1238   1.470       .  S
O1112     Zr1124   2.565       .  S
O1113     Zr1127   2.398       .  S
O1113      C1114   1.287       .  A
O1115     Zr1124   2.567       .  S
O1115      C1117   1.311       .  A
O1116     Zr1128   2.397       .  S
O1116      C1117   1.287       .  A
C1117      C1173   1.525       .  S
O1118     Zr1121   2.376       .  S
O1118      C1120   1.276       .  A
O1119     Zr1127   2.458       .  S
O1119      C1120   1.292       .  A
C1120      C1261   1.473       .  S
Zr1121     O1122   2.435       .  S
Zr1121     O1123   2.435       .  S
Zr1121     O1129   2.352       .  S
Zr1121     O1130   2.351       .  S
Zr1121     O1133   2.361       .  S
Zr1121     O1131   2.366       .  S
O1122      H1142   0.990       .  S
O1122      H1147   0.990       .  S
O1123      H1143   0.990       .  S
Zr1124     O1126   2.433   1_554  S
Zr1124     O1134   2.396   1_554  S
Zr1124     O1132   2.394   1_554  S
O1125      H1141   0.990       .  S
O1126      H1140   0.990       .  S
O1126      H1150   0.990       .  S
Zr1127     O1130   2.412       .  S
Zr1127     O1133   2.371       .  S
Zr1128     O1134   2.413   1_554  S
O1129      H1137   0.966       .  S
O1132      H1136   0.966       .  S
O1133      H1138   0.966       .  S
O1151     Zr1163   2.389       .  S
O1151      C1153   1.279       .  A
O1152      C1153   1.291       .  A
C1153      C1305   1.469       .  S
O1154      C1156   1.280   1_556  A
O1155     Zr1190   2.529       .  S
O1155      C1156   1.300       .  A
O1157     Zr1166   2.392       .  S
O1158     Zr1189   2.527       .  S
O1160     Zr1163   2.396       .  S
O1160      C1162   1.274       .  A
O1161     Zr1190   2.449   1_556  S
O1161      C1162   1.288       .  A
C1162      C1217   1.469       .  S
Zr1163     O1164   2.435       .  S
Zr1163     O1165   2.437       .  S
Zr1163     O1169   2.368       .  S
Zr1163     O1170   2.369       .  S
Zr1163     O1193   2.356       .  S
Zr1163     O1195   2.364       .  S
O1164      H1207   0.990       .  S
O1165      H1206   0.990       .  S
O1165      H1210   0.990       .  S
Zr1166     O1168   2.428       .  S
Zr1166     O1194   2.352       .  S
Zr1166     O1196   2.356       .  S
O1167      H1208   0.990       .  S
O1167      H1211   0.989       .  S
O1168      H1201   0.990       .  S
O1170     Zr1190   2.386   1_556  S
O1170      H1197   0.966       .  S
O1171     Zr1183   2.561       .  S
O1171      C1173   1.309       .  A
O1172     Zr1190   2.406       .  S
O1172      C1173   1.290       .  A
O1174     Zr1186   2.394       .  S
O1174      C1176   1.273       .  A
O1175     Zr1189   2.454       .  S
O1175      C1176   1.289       .  A
C1176      C1301   1.471       .  S
O1177     Zr1186   2.385       .  S
O1177      C1179   1.278       .  A
O1178      C1179   1.291       .  A
C1179      C1214   1.470       .  S
O1180     Zr1183   2.558   1_556  S
O1181     Zr1189   2.400       .  S
O1181      C1182   1.289       .  A
Zr1183     O1185   2.435   1_554  S
Zr1183     O1195   2.402   1_554  S
Zr1183     O1193   2.385   1_554  S
O1184      H1204   0.990       .  S
O1184      H1209   0.990       .  S
O1185      H1205   0.990       .  S
Zr1186     O1187   2.435       .  S
Zr1186     O1188   2.435       .  S
Zr1186     O1192   2.358       .  S
Zr1186     O1191   2.363       .  S
Zr1186     O1196   2.366       .  S
Zr1186     O1194   2.366       .  S
O1187      H1203   0.990       .  S
O1188      H1202   0.990       .  S
O1188      H1212   0.990       .  S
Zr1189     O1192   2.412       .  S
Zr1189     O1194   2.382       .  S
Zr1190     O1193   2.410   1_554  S
O1191      H1199   0.966       .  S
O1194      H1198   0.966       .  S
O1195      H1200   0.966       .  S
C1213      C1214   1.357       .  D
C1213      H1215   1.086       .  S
C1214      H1216   1.086       .  S
C1217      C1218   1.358       .  D
C1217      H1219   1.086       .  S
C1218      H1220   1.086       .  S
C1221      C1222   1.358       .  D
C1221      H1223   1.086       .  S
C1222      H1224   1.086       .  S
C1225      C1226   1.361       .  D
C1225      H1227   1.086       .  S
C1226      H1228   1.086       .  S
C1229      C1230   1.359       .  D
C1229      H1231   1.086       .  S
C1230      H1232   1.086       .  S
C1233      C1234   1.358       .  D
C1233      H1235   1.087       .  S
C1234      H1236   1.086       .  S
C1237      C1238   1.358       .  D
C1237      H1239   1.087       .  S
C1238      H1240   1.086       .  S
C1241      C1242   1.359       .  D
C1241      H1243   1.086       .  S
C1242      H1244   1.086       .  S
C1245      C1246   1.360       .  D
C1245      H1247   1.086       .  S
C1246      H1248   1.086       .  S
C1249      C1250   1.360       .  D
C1249      H1251   1.086       .  S
C1250      H1252   1.087       .  S
C1253      C1254   1.359       .  D
C1253      H1255   1.086       .  S
C1254      H1256   1.086       .  S
C1257      C1258   1.358       .  D
C1257      H1259   1.086       .  S
C1258      H1260   1.085       .  S
C1261      C1262   1.358       .  D
C1261      H1263   1.086       .  S
C1262      H1264   1.087       .  S
C1265      C1266   1.357       .  D
C1265      H1267   1.085       .  S
C1266      H1268   1.087       .  S
C1269      C1270   1.360       .  D
C1269      H1271   1.086       .  S
C1270      H1272   1.086       .  S
C1273      C1274   1.358       .  D
C1273      H1275   1.087       .  S
C1274      H1276   1.086       .  S
C1277      C1278   1.360       .  D
C1277      H1279   1.086       .  S
C1278      H1280   1.086       .  S
C1281      C1282   1.358       .  D
C1281      H1283   1.086       .  S
C1282      H1284   1.087       .  S
C1285      C1286   1.358       .  D
C1285      H1287   1.086       .  S
C1286      H1288   1.086       .  S
C1289      C1290   1.358       .  D
C1289      H1291   1.086       .  S
C1290      H1292   1.087       .  S
C1293      C1294   1.359       .  D
C1293      H1295   1.086       .  S
C1294      H1296   1.086       .  S
C1297      C1298   1.356       .  D
C1297      H1299   1.086       .  S
C1298      H1300   1.087       .  S
C1301      C1302   1.358       .  D
C1301      H1303   1.086       .  S
C1302      H1304   1.086       .  S
C1305      C1306   1.356       .  D
C1305      H1307   1.087       .  S
C1306      H1308   1.087       .  S
