geometry optimzed in LAMMPS
_audit_creation_date              2020-11-30 
_audit_creation_method            'lammps2cif' 
_symmetry_space_group_name_H-M    'P1' 
_symmetry_Int_Tables_number       1 
_symmetry_cell_setting            triclinic 
loop_ 
_symmetry_equiv_pos_as_xyz 
  x,y,z 
_cell_length_a                    33.8996909 
_cell_length_b                    35.575162872396135 
_cell_length_c                    73.09937388822107 
_cell_angle_alpha                 89.57453243275044 
_cell_angle_beta                  90.3403766171139 
_cell_angle_gamma                 89.83695424473903 
loop_ 
_atom_site_label 
_atom_site_type_symbol 
_atom_site_fract_x 
_atom_site_fract_y 
_atom_site_fract_z 
_atom_site_charge 
O1          O  0.39527350  0.42906112  0.27646162    -0.57200
C2          C  0.32661936  0.33420498  0.27379426     0.75500
O3          O  0.33812941  0.39768904  0.22279765    -0.58300
C4          C  0.42921614  0.43880786  0.27091366     0.75400
C5          C  0.43882050  0.34170286  0.23177054     0.77800
Cd6        Cd  0.37781120  0.38520225  0.25103540     1.37500
O7          O  0.35863696  0.34858394  0.27928443    -0.57200
O8          O  0.43889022  0.34238764  0.24905546    -0.56000
C9          C  0.32759258  0.43123393  0.22578618     0.77800
O10         O  0.40916026  0.35695682  0.22414956    -0.58300
O11         O  0.31789391  0.34190773  0.25736031    -0.56800
O12         O  0.43830458  0.42723810  0.25516611    -0.56800
O13         O  0.33942537  0.44438766  0.24092329    -0.56000
N14         N  0.43916237  0.05273750  0.66333505    -0.36000
N15         N  0.41298412  0.49706377  0.68959981    -0.56500
N16         N  0.46773747  0.02601761  0.71691740    -0.36000
N17         N  0.99627983  0.07929569  0.68895572    -0.56500
C18         C  0.41998316  0.02775695  0.65284756     0.27600
C19         C  0.46456194  0.07092864  0.65236219     0.27600
C20         C  0.45845228  0.49040867  0.72453792     0.27600
C21         C  0.00276786  0.03673143  0.72438407     0.27600
C22         C  0.38349866  0.49556353  0.67710701     0.36200
C23         C  0.39956165  0.47979883  0.70475774     0.36200
C24         C  0.99749618  0.10717185  0.67621210     0.36200
C25         C  0.01416461  0.09260250  0.70411010     0.36200
C26         C  0.43375468  0.02956797  0.63502307    -0.21200
C27         C  0.46198554  0.05716153  0.63469916    -0.21200
C28         C  0.48632886  0.48059692  0.73770687    -0.21200
C29         C  0.01396110  0.00989059  0.73730158    -0.21200
C30         C  0.35072847  0.47811252  0.68435183    -0.22300
C31         C  0.36075872  0.46830149  0.70197415    -0.22300
C32         C  0.01561946  0.13862784  0.68327394    -0.22300
C33         C  0.02603382  0.12954871  0.70098405    -0.22300
C34         C  0.38736161  0.00692134  0.65876982    -0.17600
C35         C  0.48638961  0.10234803  0.65774932    -0.17600
C36         C  0.02408017  0.07035611  0.71975032    -0.17600
C37         C  0.42385996  0.46928309  0.71977328    -0.17600
H38         H  0.42358777  0.01362284  0.62337139     0.15300
H39         H  0.47797511  0.06670881  0.62277097     0.15300
H40         H  0.48647285  0.45563499  0.74625063     0.15300
H41         H  0.04035351  0.01001821  0.74569374     0.15300
H42         H  0.32327472  0.47174646  0.67741663     0.13600
H43         H  0.34201162  0.45323477  0.71143733     0.13500
H44         H  0.02167462  0.16484411  0.67623888     0.13600
H45         H  0.04127593  0.14797710  0.71035890     0.13500
H46         H  0.43129965  0.06074760  0.67651892     0.26800
H47         H  0.45073106  0.04229304  0.70797918     0.26800
C48         C  0.26715612  0.97328561  0.54231211    -0.10200
C49         C  0.24495666  0.00300465  0.54901071    -0.04100
C50         C  0.22312911  0.02658155  0.53755371    -0.10200
C51         C  0.22036878  0.01871162  0.51873174     0.10800
C52         C  0.24190346  0.98774291  0.51166825    -0.02000
C53         C  0.26432520  0.46171763  0.52395206     0.10600
C54         C  0.28706813  0.43257304  0.51653165    -0.12000
C55         C  0.28602746  0.42533143  0.49780636    -0.12000
C56         C  0.26064874  0.44570356  0.48614006     0.10600
C57         C  0.23735360  0.47536587  0.49339592    -0.02000
C58         C  0.19719100  0.04092101  0.50685239    -0.12100
C59         C  0.19413079  0.03218798  0.48831669    -0.12100
C60         C  0.21475884  0.00144793  0.48111527     0.10800
C61         C  0.20909040  0.48732000  0.46312082    -0.10200
C62         C  0.23002206  0.45670720  0.45658714    -0.04100
C63         C  0.25763991  0.43756444  0.46732640    -0.10200
H64         H  0.30619010  0.41552788  0.52515843     0.08000
H65         H  0.30453658  0.40306803  0.49257197     0.08000
H66         H  0.18075580  0.06478640  0.51191738     0.08200
H67         H  0.17537474  0.04950856  0.47964460     0.08200
H68         H  0.24662701  0.00942823  0.56351333     0.04600
H69         H  0.22743085  0.44977890  0.44216485     0.04600
N70         N  0.01548721  0.50188931  0.28594220    -0.36000
N71         N  0.47527280  0.46272600  0.31597042    -0.56500
N72         N  0.03037205  0.49754189  0.34121571    -0.36000
N73         N  0.07043066  0.03688598  0.31266412    -0.56500
C74         C  0.48269866  0.48869154  0.27718087     0.27600
C75         C  0.03207530  0.03012263  0.27566440     0.27600
C76         C  0.00343048  0.48249225  0.35253393     0.27600
C77         C  0.05279474  0.52097870  0.35128412     0.27600
C78         C  0.46052858  0.44386928  0.30151332     0.36200
C79         C  0.47124220  0.43979924  0.33072549     0.36200
C80         C  0.08728721  0.04738189  0.29682735     0.36200
C81         C  0.09823736  0.04128040  0.32581520     0.36200
C82         C  0.47764177  0.50902294  0.26106582    -0.21200
C83         C  0.00875154  0.03474343  0.26015131    -0.21200
C84         C  0.00779781  0.49734810  0.36989022    -0.21200
C85         C  0.03912709  0.52144347  0.36915424    -0.21200
C86         C  0.44647303  0.40903876  0.30728530    -0.22300
C87         C  0.45339790  0.40650098  0.32579839    -0.22300
C88         C  0.12605025  0.05854528  0.30002757    -0.22300
C89         C  0.13279607  0.05498281  0.31844781    -0.22300
C90         C  0.45813497  0.45829360  0.28336573    -0.17600
C91         C  0.06686425  0.05136216  0.27998750    -0.17600
C92         C  0.08851267  0.53681166  0.34517921    -0.17600
C93         C  0.98259702  0.44947761  0.34867275    -0.17600
H94         H  0.45444531  0.50546980  0.25099883     0.15300
H95         H  0.01277241  0.05515924  0.24928220     0.15300
H96         H  0.99206484  0.48950293  0.38216679     0.15300
H97         H  0.05124009  0.53582499  0.38083828     0.15300
H98         H  0.43323515  0.38729633  0.29901573     0.13600
H99         H  0.44608059  0.38299073  0.33461791     0.13500
H100        H  0.14721406  0.06871058  0.29014133     0.13600
H101        H  0.15979848  0.06202401  0.32560173     0.13500
H102        H  0.02849088  0.48990282  0.29750597     0.26800
H103        H  0.03808662  0.48642476  0.32860773     0.26800
C104        C  0.46282017  0.26860834  0.53380568    -0.10200
C105        C  0.48414922  0.24444558  0.54515614    -0.04100
C106        C  0.51845594  0.22645542  0.53954877    -0.10200
C107        C  0.03173896  0.23180653  0.52130156     0.10800
C108        C  0.51086911  0.25741152  0.50959233    -0.02000
C109        C  0.47629670  0.27598725  0.51590126     0.10600
C110        C  0.45624344  0.30116125  0.50420801    -0.12000
C111        C  0.47043186  0.30907612  0.48672386    -0.12000
C112        C  0.50463701  0.29143333  0.48023220     0.10600
C113        C  0.02454819  0.26456594  0.49156759    -0.02000
C114        C  0.06461878  0.21253231  0.51434646    -0.12100
C115        C  0.07661241  0.21789112  0.49615520    -0.12100
C116        C  0.05734094  0.24410281  0.48467323     0.10800
C117        C  0.06971969  0.25095386  0.46644294    -0.10200
C118        C  0.05241948  0.28015291  0.45641747    -0.04100
C119        C  0.01951634  0.29948243  0.46261556    -0.10200
H120        H  0.42968280  0.31531036  0.50864505     0.08000
H121        H  0.45440453  0.32913388  0.47827968     0.08000
H122        H  0.08080021  0.19275333  0.52288450     0.08200
H123        H  0.10175890  0.20217543  0.49122570     0.08200
H124        H  0.47386376  0.23984577  0.55905899     0.04600
H125        H  0.06247230  0.28555881  0.44254750     0.04600
N126        N  0.27056070  0.22263845  0.65257575    -0.36000
N127        N  0.29995267  0.27691593  0.67764432    -0.56500
N128        N  0.24425810  0.24763367  0.70568990    -0.36000
N129        N  0.21771224  0.19077600  0.67943875    -0.56500
C130        C  0.30248170  0.23529048  0.64352888     0.27600
C131        C  0.25968626  0.19029188  0.64458476     0.27600
C132        C  0.26957481  0.26863379  0.71598409     0.27600
C133        C  0.22540975  0.22262820  0.71691401     0.27600
C134        C  0.31299307  0.29217227  0.66170215     0.36200
C135        C  0.30164240  0.30423130  0.69036542     0.36200
C136        C  0.20200871  0.17667106  0.66381796     0.36200
C137        C  0.19008233  0.18687958  0.69259579     0.36200
C138        C  0.31287176  0.21009427  0.62998351    -0.21200
C139        C  0.28578420  0.18149737  0.63068521    -0.21200
C140        C  0.26640257  0.25688055  0.73407924    -0.21200
C141        C  0.23875589  0.22820035  0.73465634    -0.21200
C142        C  0.32302802  0.32936355  0.66421601    -0.22300
C143        C  0.31583664  0.33709138  0.68234413    -0.22300
C144        C  0.16420815  0.16389407  0.66695144    -0.22300
C145        C  0.15663094  0.17014810  0.68518188    -0.22300
C146        C  0.31768445  0.27177827  0.64529739    -0.17600
C147        C  0.22273009  0.17331986  0.64715596    -0.17600
C148        C  0.19609668  0.19560429  0.71140962    -0.17600
C149        C  0.29444400  0.29862114  0.70938388    -0.17600
H150        H  0.33612665  0.21305869  0.61999536     0.15300
H151        H  0.28395443  0.15817236  0.62129686     0.15300
H152        H  0.28260967  0.26733168  0.74575330     0.15300
H153        H  0.23010879  0.21289157  0.74681418     0.15300
H154        H  0.33456121  0.34871052  0.65411932     0.13600
H155        H  0.32053273  0.36396778  0.68883048     0.13500
H156        H  0.14446698  0.15108521  0.65716656     0.13600
H157        H  0.12938271  0.16341083  0.69209377     0.13500
H158        H  0.25280350  0.23858455  0.66114488     0.26800
H159        H  0.23810923  0.25206733  0.69187612     0.26800
N160        N  0.25016613  0.26048648  0.28958602    -0.36000
N161        N  0.20811221  0.21325602  0.31711221    -0.56500
N162        N  0.24413981  0.25645964  0.34503161    -0.36000
N163        N  0.28860641  0.30151341  0.31930266    -0.56500
C164        C  0.23684177  0.23155762  0.27908864     0.27600
C165        C  0.27910343  0.27904247  0.28025987     0.27600
C166        C  0.22768507  0.22857755  0.35494841     0.27600
C167        C  0.27054308  0.27339196  0.35600341     0.27600
C168        C  0.18921170  0.20362598  0.30156713     0.36200
C169        C  0.18351085  0.20471844  0.33111503     0.36200
C170        C  0.29893817  0.32357286  0.30500093     0.36200
C171        C  0.29266646  0.32260222  0.33456396     0.36200
C172        C  0.25734690  0.23205256  0.26271907    -0.21200
C173        C  0.28379655  0.26176306  0.26344934    -0.21200
C174        C  0.24481607  0.22714687  0.37222908    -0.21200
C175        C  0.27199072  0.25525230  0.37284769    -0.21200
C176        C  0.15249861  0.18849805  0.30584393    -0.22300
C177        C  0.14902469  0.18912824  0.32456996    -0.22300
C178        C  0.30999968  0.35881569  0.31135376    -0.22300
C179        C  0.30596003  0.35813348  0.33008437    -0.22300
C180        C  0.20568166  0.20584186  0.28373754    -0.17600
C181        C  0.30047442  0.31157189  0.28648395    -0.17600
C182        C  0.28643294  0.30904003  0.35249914    -0.17600
C183        C  0.19300706  0.20983139  0.34974363    -0.17600
H184        H  0.25382685  0.21291888  0.25139519     0.15300
H185        H  0.30434740  0.26945387  0.25280482     0.15300
H186        H  0.23745084  0.20949596  0.38375823     0.15300
H187        H  0.28867567  0.26288768  0.38489389     0.15300
H188        H  0.13019789  0.17835843  0.29646480     0.13600
H189        H  0.12412941  0.17924321  0.33244576     0.13500
H190        H  0.31951622  0.38281680  0.30336758     0.13600
H191        H  0.31233828  0.38096804  0.33933922     0.13500
H192        H  0.23780996  0.26892238  0.30186841     0.26800
H193        H  0.23233973  0.26814902  0.33310053     0.26800
C194        C  0.97593758  0.46369029  0.03918967    -0.10200
C195        C  0.00796008  0.48280059  0.04663891    -0.04100
C196        C  0.03228527  0.50563084  0.03613389    -0.10200
C197        C  0.02515005  0.01119668  0.01753646     0.10800
C198        C  0.99194683  0.49118261  0.00933371    -0.02000
C199        C  0.46834486  0.46650452  0.02014923     0.10600
C200        C  0.43830004  0.44572685  0.01164850    -0.12000
C201        C  0.43139491  0.44906034  0.99281444    -0.12000
C202        C  0.45298752  0.47467508  0.98213640     0.10600
C203        C  0.48524052  0.99653253  0.99045562    -0.02000
C204        C  0.04771995  0.03601600  0.00685978    -0.12100
C205        C  0.03859129  0.04226962  0.98846128    -0.12100
C206        C  0.00730065  0.02311201  0.98006798     0.10800
C207        C  0.49740555  0.02948411  0.96150186    -0.10200
C208        C  0.46734926  0.00853285  0.95356643    -0.04100
C209        C  0.44787111  0.98011958  0.96302456    -0.10200
H210        H  0.42026547  0.42650634  0.01951476     0.08000
H211        H  0.40817975  0.43235577  0.98672838     0.08000
H212        H  0.07221750  0.05125198  0.01278054     0.08200
H213        H  0.05626670  0.06214300  0.98080389     0.08200
H214        H  0.01413001  0.47992120  0.06119279     0.04600
H215        H  0.46034684  0.01305592  0.93917989     0.04600
N216        N  0.24920762  0.99992122  0.78897800    -0.36000
N217        N  0.29382726  0.45307792  0.81573734    -0.56500
N218        N  0.26101107  0.99489236  0.84457643    -0.36000
N219        N  0.21195474  0.03940432  0.81953168    -0.56500
C220        C  0.26306052  0.47237815  0.77799906     0.27600
C221        C  0.21940469  0.01854581  0.78005017     0.27600
C222        C  0.28020186  0.96777070  0.85413119     0.27600
C223        C  0.23579819  0.01140894  0.85621574     0.27600
C224        C  0.31182420  0.44373238  0.80000892     0.36200
C225        C  0.31925600  0.44389504  0.82946521     0.36200
C226        C  0.20049657  0.06201562  0.80544101     0.36200
C227        C  0.20878521  0.05989310  0.83508578     0.36200
C228        C  0.24186503  0.47336026  0.76173454    -0.21200
C229        C  0.21521043  0.50294142  0.76283243    -0.21200
C230        C  0.26624780  0.96652125  0.87192714    -0.21200
C231        C  0.23810815  0.99384576  0.87320733    -0.21200
C232        C  0.34872776  0.42819421  0.80389750    -0.22300
C233        C  0.35327721  0.42819292  0.82256019    -0.22300
C234        C  0.18978944  0.09698364  0.81229516    -0.22300
C235        C  0.19483717  0.09547940  0.83099802    -0.22300
C236        C  0.29438156  0.44636629  0.78232539    -0.17600
C237        C  0.19816805  0.05094616  0.78665916    -0.17600
C238        C  0.21733717  0.04628156  0.85296177    -0.17600
C239        C  0.31122375  0.44850652  0.84820068    -0.17600
H240        H  0.24500308  0.45455894  0.75026461     0.15300
H241        H  0.19245872  0.00912838  0.75273472     0.15300
H242        H  0.27620452  0.94924799  0.88324365     0.15300
H243        H  0.22312552  0.00136593  0.88567678     0.15300
H244        H  0.37044792  0.41816226  0.79429380     0.13600
H245        H  0.37862105  0.41785607  0.83016401     0.13500
H246        H  0.18028818  0.12162007  0.80470995     0.13600
H247        H  0.18926466  0.11808465  0.84047955     0.13500
H248        H  0.26224237  0.00811784  0.80120456     0.26800
H249        H  0.26999897  0.00631913  0.83215537     0.26800
N250        N  0.46292031  0.22506085  0.84120709    -0.36000
N251        N  0.42896442  0.27402508  0.81426811    -0.56500
N252        N  0.48119337  0.23958209  0.78646006    -0.36000
N253        N  0.01757444  0.19288438  0.81520263    -0.56500
C254        C  0.44222836  0.24858884  0.85196313     0.27600
C255        C  0.48839536  0.20640436  0.85222268     0.27600
C256        C  0.46617190  0.26942927  0.77687694     0.27600
C257        C  0.01349401  0.22627298  0.77746540     0.27600
C258        C  0.40191517  0.27837703  0.82771023     0.36200
C259        C  0.41218996  0.28720869  0.79869833     0.36200
C260        C  0.02173726  0.16772565  0.82908419     0.36200
C261        C  0.03452421  0.17730855  0.80040555     0.36200
C262        C  0.45530648  0.24501898  0.86994305    -0.21200
C263        C  0.48453557  0.21865374  0.87006637    -0.21200
C264        C  0.48902852  0.27472708  0.76137090    -0.21200
C265        C  0.01856256  0.24757806  0.76170536    -0.21200
C266        C  0.36795367  0.29475338  0.82080934    -0.22300
C267        C  0.37414499  0.29989134  0.80241634    -0.22300
C268        C  0.04165158  0.13613053  0.82325075    -0.22300
C269        C  0.04991829  0.14218444  0.80507802    -0.22300
C270        C  0.40853386  0.26898895  0.84626766    -0.17600
C271        C  0.50986842  0.17434098  0.84719517    -0.17600
C272        C  0.03769853  0.19485714  0.78296005    -0.17600
C273        C  0.43178840  0.29105517  0.78159209    -0.17600
H274        H  0.44440774  0.25852952  0.88205879     0.15300
H275        H  0.49966492  0.20830480  0.88217183     0.15300
H276        H  0.48508845  0.29600345  0.75086807     0.15300
H277        H  0.04134588  0.24411891  0.75154301     0.15300
H278        H  0.34150450  0.30206869  0.82822169     0.13600
H279        H  0.35278839  0.31163743  0.79290206     0.13500
H280        H  0.04978665  0.11161690  0.83129868     0.13600
H281        H  0.06524419  0.12269608  0.79629691     0.13500
H282        H  0.45532628  0.21721482  0.82797381     0.26800
H283        H  0.46815372  0.22716567  0.79779492     0.26800
O284        O  0.09670076  0.11115126  0.27361913    -0.57200
C285        C  0.18756248  0.17994387  0.26984481     0.75500
O286        O  0.15112261  0.09647678  0.21928909    -0.58300
C287        C  0.08407091  0.08034140  0.26737481     0.75400
C288        C  0.08949427  0.19457127  0.22983926     0.77800
Cd289      Cd  0.13522956  0.13316628  0.24714528     1.37500
O290        O  0.17681415  0.14696789  0.27427174    -0.57200
O291        O  0.08806080  0.18998813  0.24696574    -0.56000
C292        C  0.18499874  0.08394955  0.22358060     0.77800
O293        O  0.10721446  0.16879128  0.22122563    -0.58300
O294        O  0.17849824  0.19022745  0.25374520    -0.56800
O295        O  0.09138782  0.07461221  0.25072570    -0.56800
O296        O  0.19772743  0.09478670  0.23900442    -0.56000
N297        N  0.22574151  0.47756014  0.15438355    -0.36000
N298        N  0.20020144  0.03446661  0.17960581    -0.56500
N299        N  0.25663521  0.50670941  0.20652493    -0.36000
N300        N  0.27916836  0.44609541  0.18031248    -0.56500
C301        C  0.19296161  0.49071799  0.14608654     0.27600
C302        C  0.23415903  0.44423900  0.14665038     0.27600
C303        C  0.23290019  0.02861168  0.21735227     0.27600
C304        C  0.27533712  0.48125311  0.21762147     0.27600
C305        C  0.18565887  0.04845831  0.16365196     0.36200
C306        C  0.19913635  0.06275382  0.19181049     0.36200
C307        C  0.29330924  0.43034059  0.16475472     0.36200
C308        C  0.30786177  0.44319756  0.19316471     0.36200
C309        C  0.17947887  0.46486257  0.13337080    -0.21200
C310        C  0.20557411  0.43532367  0.13377098    -0.21200
C311        C  0.23749490  0.01769240  0.23549328    -0.21200
C312        C  0.26357096  0.48765603  0.23549912    -0.21200
C313        C  0.17539519  0.08582231  0.16561338    -0.22300
C314        C  0.18392392  0.09495502  0.18345654    -0.22300
C315        C  0.33129177  0.41751613  0.16763481    -0.22300
C316        C  0.34052410  0.42538193  0.18563578    -0.22300
C317        C  0.17977606  0.52801912  0.14746340    -0.17600
C318        C  0.27081674  0.42617431  0.14845404    -0.17600
C319        C  0.30330847  0.45319385  0.21192273    -0.17600
C320        C  0.20751424  0.05838855  0.21076454    -0.17600
H321        H  0.15478839  0.46788328  0.12402790     0.15300
H322        H  0.20508544  0.41128780  0.12477399     0.15300
H323        H  0.22264090  0.02915588  0.24726040     0.15300
H324        H  0.27245938  0.47220806  0.24763788     0.15300
H325        H  0.16238378  0.10426986  0.15541298     0.13600
H326        H  0.17916583  0.12218787  0.18957743     0.13500
H327        H  0.35006159  0.40376089  0.15783837     0.13600
H328        H  0.36828724  0.41889004  0.19234642     0.13500
H329        H  0.24525372  0.49370106  0.16206514     0.26800
H330        H  0.26200932  0.51033547  0.19262414     0.26800
C331        C  0.24490436  0.17061039  0.97018022    -0.10200
C332        C  0.27094239  0.19129887  0.95942025    -0.04100
C333        C  0.28782193  0.22457370  0.96543535    -0.10200
C334        C  0.28177634  0.23623328  0.98367003     0.10800
C335        C  0.25851392  0.21345731  0.99550788    -0.02000
C336        C  0.23965786  0.18056178  0.98871214     0.10600
C337        C  0.21644964  0.15878244  0.00056603    -0.12000
C338        C  0.21286320  0.16824836  0.01901490    -0.12000
C339        C  0.23060282  0.20090487  0.02592781     0.10600
C340        C  0.25304422  0.22424618  0.01398769    -0.02000
C341        C  0.29802918  0.26978854  0.99034056    -0.12100
C342        C  0.29175338  0.28094795  0.00840896    -0.12100
C343        C  0.26972997  0.25850221  0.02047104     0.10800
C344        C  0.26344966  0.26907848  0.03888692    -0.10200
C345        C  0.24277388  0.24505759  0.05038149    -0.04100
C346        C  0.22651772  0.21139462  0.04443942    -0.10200
H347        H  0.20180089  0.13371690  0.99571613     0.08000
H348        H  0.19560568  0.15012289  0.02781919     0.08000
H349        H  0.31565881  0.28764460  0.98156600     0.08200
H350        H  0.30461118  0.30710584  0.01297542     0.08200
H351        H  0.27512261  0.18322538  0.94524169     0.04600
H352        H  0.23875763  0.25315452  0.06455705     0.04600
O353        O  0.10277399  0.17148582  0.77526797    -0.57200
C354        C  0.17200149  0.07447776  0.77390533     0.75500
O355        O  0.08822238  0.09907097  0.72309244    -0.58300
C356        C  0.06732615  0.17745276  0.77028695     0.75400
C357        C  0.17196218  0.17341506  0.72527416     0.77800
Cd358      Cd  0.12123885  0.12631015  0.75034832     1.37500
O359        O  0.14320107  0.09357761  0.77970144    -0.57200
O360        O  0.16122830  0.18577870  0.74070041    -0.56000
C361        C  0.05888977  0.08382237  0.73079028     0.77800
O362        O  0.16018410  0.14042004  0.72192172    -0.58300
O363        O  0.17729493  0.07768244  0.75685614    -0.56800
O364        O  0.05759323  0.16334866  0.75509780    -0.56800
O365        O  0.05992346  0.08393973  0.74808113    -0.56000
O366        O  0.39955397  0.35007263  0.77467027    -0.57200
C367        C  0.31174061  0.42025516  0.76836657     0.75500
O368        O  0.39588859  0.40710237  0.72099374    -0.58300
C369        C  0.41433998  0.31993056  0.76870082     0.75400
C370        C  0.31677708  0.32392933  0.72240723     0.77800
Cd371      Cd  0.36524478  0.37283766  0.74671918     1.37500
O372        O  0.32171780  0.38699428  0.77278977    -0.57200
O373        O  0.30442351  0.33330077  0.73805542    -0.56000
C374        C  0.41111237  0.43419430  0.72969734     0.77800
O375        O  0.34992585  0.33772557  0.71815624    -0.58300
O376        O  0.32164925  0.43062289  0.75244751    -0.56800
O377        O  0.41040506  0.31517937  0.75168525    -0.56800
O378        O  0.41043526  0.43092287  0.74691138    -0.56000
N379        N  0.02895473  0.28336963  0.21733714    -0.36000
N380        N  0.49706767  0.33433767  0.18926712    -0.56500
N381        N  0.05274320  0.30693820  0.16296619    -0.36000
N382        N  0.08339409  0.25587310  0.18953596    -0.56500
C383        C  0.49445888  0.29420540  0.22514580     0.27600
C384        C  0.04045521  0.24988941  0.22484431     0.27600
C385        C  0.02593137  0.32424384  0.15220825     0.27600
C386        C  0.07228194  0.28248362  0.15234145     0.27600
C387        C  0.48103012  0.34888034  0.20450271     0.36200
C388        C  0.49417164  0.36127115  0.17614501     0.36200
C389        C  0.09860942  0.24047484  0.20488237     0.36200
C390        C  0.11205646  0.25428180  0.17680633     0.36200
C391        C  0.48431382  0.26761479  0.23826796    -0.21200
C392        C  0.01314028  0.23966503  0.23802998    -0.21200
C393        C  0.02816478  0.31057444  0.13451655    -0.21200
C394        C  0.05764326  0.28401395  0.13459664    -0.21200
C395        C  0.46869338  0.38564515  0.20103075    -0.22300
C396        C  0.47672483  0.39329446  0.18299028    -0.22300
C397        C  0.13776270  0.23028561  0.20199014    -0.22300
C398        C  0.14606831  0.23864827  0.18406561    -0.22300
C399        C  0.47271982  0.32765487  0.22054091    -0.17600
C400        C  0.07544476  0.22946405  0.22001963    -0.17600
C401        C  0.10515280  0.26153796  0.15819162    -0.17600
C402        C  0.00347418  0.35527852  0.15766834    -0.17600
H403        H  0.45851121  0.26788161  0.24690676     0.15300
H404        H  0.01362588  0.21461518  0.24650603     0.15300
H405        H  0.01113689  0.31960376  0.12271111     0.15300
H406        H  0.06778842  0.26838287  0.12287134     0.15300
H407        H  0.45460397  0.40483141  0.21039014     0.13600
H408        H  0.46975165  0.41902324  0.17564751     0.13500
H409        H  0.15780660  0.21676017  0.21157339     0.13600
H410        H  0.17331165  0.23264028  0.17699783     0.13500
H411        H  0.04525390  0.29944673  0.20815722     0.26800
H412        H  0.06095544  0.31522022  0.17609352     0.26800
C413        C  0.20535230  0.19018950  0.05891131     0.02000
C414        C  0.16505456  0.19843731  0.06136282     0.04800
C415        C  0.15003173  0.20260435  0.07913797    -0.11300
C416        C  0.17509923  0.19752741  0.09440918     0.24100
C417        C  0.21344773  0.18324130  0.09198818    -0.11800
C418        C  0.22822062  0.17865783  0.07419118     0.05500
C419        C  0.16279938  0.21232849  0.11243164     0.27900
C420        C  0.16843222  0.25068004  0.11635303    -0.12500
C421        C  0.15320706  0.26599361  0.13250807     0.06000
C422        C  0.12993415  0.24353594  0.14413362    -0.08500
C423        C  0.12454871  0.20514773  0.14031688     0.06800
C424        C  0.14191608  0.18951348  0.12475475    -0.12800
Br425      Br  0.24729913  0.17506921  0.11293397    -0.04900
Br426      Br  0.13232563  0.21029871  0.04047284     0.00700
Br427      Br  0.16172572  0.31831747  0.13813681     0.01200
Br428      Br  0.13405983  0.13767401  0.11946806    -0.03200
Br429      Br  0.28272364  0.16488511  0.07064452     0.01300
Br430      Br  0.09687444  0.22066293  0.08262797    -0.02500
Br431      Br  0.19270137  0.28305895  0.09851731    -0.03400
Br432      Br  0.08953136  0.17496604  0.15511161     0.00600
C433        C  0.28527507  0.40554324  0.13187064     0.02000
C434        C  0.29172443  0.42604262  0.11546441     0.04800
C435        C  0.29411338  0.40746427  0.09849418    -0.11300
C436        C  0.29142841  0.36795307  0.09771548     0.24100
C437        C  0.28842936  0.34721250  0.11425836    -0.11800
C438        C  0.28454163  0.36592963  0.13118277     0.05500
C439        C  0.28795223  0.34873792  0.07956031     0.27900
C440        C  0.25174386  0.35031248  0.06990712    -0.12500
C441        C  0.24637824  0.32911251  0.05387725     0.06000
C442        C  0.27631242  0.30455940  0.04780795    -0.08500
C443        C  0.31351471  0.30540932  0.05647961     0.06800
C444        C  0.31945420  0.32756560  0.07221187    -0.12800
Br445      Br  0.28888859  0.29304491  0.11378812    -0.04900
Br446      Br  0.29849745  0.47978763  0.11635877     0.00700
Br447      Br  0.19567741  0.32883417  0.04167412     0.01200
Br448      Br  0.36984705  0.32589410  0.08440031    -0.03200
Br449      Br  0.27539640  0.33738506  0.15324322     0.01300
Br450      Br  0.30255939  0.43597232  0.07629268    -0.02500
Br451      Br  0.20771246  0.37793458  0.07981790    -0.03400
Br452      Br  0.35477482  0.27242273  0.04808839     0.00600
C453        C  0.30758926  0.24679243  0.95088833     0.02000
C454        C  0.34462226  0.23443471  0.94467441     0.04800
C455        C  0.35674769  0.24269439  0.92671031    -0.11300
C456        C  0.33222339  0.26412910  0.91490233     0.24100
C457        C  0.29571117  0.27763059  0.92133515    -0.11800
C458        C  0.28393999  0.26971618  0.93940215     0.05500
C459        C  0.34490915  0.27179427  0.89573720     0.27900
C460        C  0.37454632  0.29859706  0.89223377    -0.12500
C461        C  0.38866433  0.30384096  0.87432125     0.06000
C462        C  0.37878689  0.27776011  0.86065241    -0.08500
C463        C  0.34786573  0.25213379  0.86382392     0.06800
C464        C  0.33016496  0.24994652  0.88118942    -0.12800
Br465      Br  0.25977338  0.30332942  0.90489077    -0.04900
Br466      Br  0.37705139  0.20334203  0.96044984     0.00700
Br467      Br  0.42708576  0.34208009  0.86902918     0.01200
Br468      Br  0.28917017  0.21368026  0.88554230    -0.03200
Br469      Br  0.23375178  0.28768711  0.94804870     0.01300
Br470      Br  0.40525426  0.22147463  0.91768354    -0.02500
Br471      Br  0.40158745  0.32206766  0.91240252    -0.03400
Br472      Br  0.33249691  0.21741197  0.84494267     0.00600
C473        C  0.21145430  0.06993482  0.86954200     0.02000
C474        C  0.17875392  0.06299003  0.88091108     0.04800
C475        C  0.17914187  0.07493052  0.89927539    -0.11300
C476        C  0.21158105  0.09500327  0.90620998     0.24100
C477        C  0.24455166  0.10145601  0.89499992    -0.11800
C478        C  0.24429058  0.08946008  0.87667672     0.05500
C479        C  0.21088467  0.10998776  0.92517323     0.27900
C480        C  0.19681886  0.14663234  0.92820834    -0.12500
C481        C  0.19609601  0.16080137  0.94604308     0.06000
C482        C  0.22004148  0.14395139  0.95964214    -0.08500
C483        C  0.23350594  0.10690072  0.95693180     0.06800
C484        C  0.22624728  0.08895691  0.94006722    -0.12800
Br485      Br  0.29173216  0.12268062  0.90552407    -0.04900
Br486      Br  0.13654643  0.03204695  0.87189430     0.00700
Br487      Br  0.16946961  0.20738998  0.95111811     0.01200
Br488      Br  0.24073592  0.03719346  0.93679382    -0.03200
Br489      Br  0.29065608  0.09617491  0.86181660     0.01300
Br490      Br  0.13846916  0.05918367  0.91586835    -0.02500
Br491      Br  0.18758525  0.18051031  0.90790220    -0.03400
Br492      Br  0.26586513  0.08290154  0.97533115     0.00600
C493        C  0.51779377  0.14686740  0.86216752     0.02000
C494        C  0.05152185  0.15166480  0.87326501     0.04800
C495        C  0.05224052  0.13674327  0.89113770    -0.11300
C496        C  0.51988092  0.11649945  0.89786756     0.24100
C497        C  0.48608922  0.11197885  0.88688358    -0.11800
C498        C  0.48558300  0.12586855  0.86885124     0.05500
C499        C  0.52238453  0.09730253  0.91591791     0.27900
C500        C  0.53532909  0.05977533  0.91667694    -0.12500
C501        C  0.53584126  0.04026458  0.93339629     0.06000
C502        C  0.51746070  0.05598030  0.94882869    -0.08500
C503        C  0.00563279  0.09405243  0.94830502     0.06800
C504        C  0.00965318  0.11516208  0.93201131    -0.12800
Br505      Br  0.43898330  0.09103318  0.89742541    -0.04900
Br506      Br  0.09444499  0.18244795  0.86468796     0.00700
Br507      Br  0.55675650  0.98983310  0.93465457     0.01200
Br508      Br  0.99423107  0.16727954  0.93114849    -0.03200
Br509      Br  0.43931051  0.11909699  0.85373488     0.01300
Br510      Br  0.09475257  0.14816061  0.90746501    -0.02500
Br511      Br  0.54668668  0.03337625  0.89438835    -0.03400
Br512      Br  0.97946670  0.11577366  0.96904666     0.00600
C513        C  0.34090565  0.43803295  0.86250148     0.02000
C514        C  0.33274852  0.40818255  0.87464568     0.04800
C515        C  0.34792258  0.40909264  0.89259649    -0.11300
C516        C  0.37708615  0.43549027  0.89730991     0.24100
C517        C  0.39408588  0.96080091  0.88312717    -0.11800
C518        C  0.37453775  0.96319332  0.86612133     0.05500
C519        C  0.39037881  0.43927424  0.91663931     0.27900
C520        C  0.36797453  0.46123069  0.92880902    -0.12500
C521        C  0.38281257  0.46930447  0.94636647     0.06000
C522        C  0.42310089  0.95587549  0.95128507    -0.08500
C523        C  0.44334497  0.93053044  0.93992543     0.06800
C524        C  0.43002669  0.92426064  0.92195203    -0.12800
Br525      Br  0.43638107  0.99488329  0.88868494    -0.04900
Br526      Br  0.29605929  0.36969501  0.86744226     0.00700
Br527      Br  0.35497508  0.50315995  0.96224025     0.01200
Br528      Br  0.46477263  0.90025348  0.90481412    -0.03200
Br529      Br  0.38637142  0.00405952  0.84953726     0.01300
Br530      Br  0.32286911  0.38005554  0.91150548    -0.02500
Br531      Br  0.31980348  0.48471499  0.92041555    -0.03400
Br532      Br  0.49250688  0.90884171  0.94830246     0.00600
C533        C  0.15935363  0.54384659  0.13112810     0.02000
C534        C  0.11855251  0.53814257  0.12897257     0.04800
C535        C  0.10103664  0.54173815  0.11156173    -0.11300
C536        C  0.12450690  0.55031294  0.09618334     0.24100
C537        C  0.16319267  0.05968256  0.09935485    -0.11800
C538        C  0.18072579  0.05553652  0.11674562     0.05500
C539        C  0.10838271  0.54399089  0.07753956     0.27900
C540        C  0.11654452  0.50958539  0.06884089    -0.12500
C541        C  0.09538389  0.49948285  0.05307602     0.06000
C542        C  0.06528277  0.52320122  0.04623528    -0.08500
C543        C  0.05973657  0.55905020  0.05385939     0.06800
C544        C  0.08147790  0.56956869  0.06945395    -0.12800
Br545      Br  0.19423588  0.07563398  0.07868321    -0.04900
Br546      Br  0.08789681  0.52081630  0.14950629     0.00700
Br547      Br  0.10514086  0.95150555  0.04278843     0.01200
Br548      Br  0.07143769  0.61731481  0.08073118    -0.03200
Br549      Br  0.23613611  0.06558018  0.12001339     0.01300
Br550      Br  0.04534462  0.53242253  0.10866393    -0.02500
Br551      Br  0.15160581  0.97451987  0.08115496    -0.03400
Br552      Br  0.01887704  0.59167210  0.04428785     0.00600
C553        C  0.98873011  0.38091559  0.14308581     0.02000
C554        C  0.44890484  0.37911361  0.13764369     0.04800
C555        C  0.43688185  0.39645985  0.12124978    -0.11300
C556        C  0.96487295  0.41210670  0.10928828     0.24100
C557        C  0.00446174  0.41530229  0.11510093    -0.11800
C558        C  0.01604313  0.40095664  0.13228451     0.05500
C559        C  0.95428023  0.42011317  0.08984865     0.27900
C560        C  0.96659403  0.39487209  0.07617843    -0.12500
C561        C  0.96585110  0.40610785  0.05767288     0.06000
C562        C  0.95241203  0.44231668  0.05281800    -0.08500
C563        C  0.93263687  0.46393422  0.06605691     0.06800
C564        C  0.93526975  0.45388541  0.08470171    -0.12800
Br565      Br  0.04357060  0.43579609  0.09879418    -0.04900
Br566      Br  0.41214782  0.34811282  0.15106511    -0.00100
Br567      Br  0.48890716  0.37451378  0.03928975     0.01200
Br568      Br  0.91773187  0.48862235  0.10310818    -0.03200
Br569      Br  0.07023676  0.40530154  0.14027238     0.01300
Br570      Br  0.38252168  0.39725016  0.11491904    -0.02500
Br571      Br  0.48896476  0.34676191  0.08303152    -0.03400
Br572      Br  0.90858714  0.51084034  0.05871941     0.00600
C573        C  0.42758281  0.28554252  0.54244204     0.02000
C574        C  0.39683678  0.26106395  0.54747958     0.04800
C575        C  0.37575732  0.26730107  0.56369924    -0.11300
C576        C  0.38352171  0.29959820  0.57425741     0.24100
C577        C  0.40875704  0.32755744  0.56711080    -0.11800
C578        C  0.43180292  0.31997383  0.55159420     0.05500
C579        C  0.36828098  0.30155042  0.59338475     0.27900
C580        C  0.32781628  0.30762767  0.59653663    -0.12500
C581        C  0.31192585  0.30120840  0.61407195     0.06000
C582        C  0.33630764  0.28862445  0.62863655    -0.08500
C583        C  0.37722431  0.28501631  0.62579286     0.06800
C584        C  0.39331225  0.29226761  0.60833540    -0.12800
Br585      Br  0.41340452  0.37544363  0.57882765    -0.04900
Br586      Br  0.38817387  0.21604547  0.53346782     0.00700
Br587      Br  0.25631683  0.30813524  0.61803321     0.01200
Br588      Br  0.44956609  0.28849093  0.60486120    -0.03200
Br589      Br  0.47309483  0.35419626  0.54447264     0.01300
Br590      Br  0.33911833  0.22966509  0.57222151    -0.02500
Br591      Br  0.29442204  0.32469695  0.57668779    -0.03400
Br592      Br  0.41044504  0.26649298  0.64539337     0.00600
C593        C  0.09434357  0.22561160  0.45512486     0.02000
C594        C  0.07349294  0.19896171  0.44464331     0.04800
C595        C  0.08401963  0.19238797  0.42632981    -0.11300
C596        C  0.11906435  0.20779813  0.41927709     0.24100
C597        C  0.14254103  0.23096452  0.43048077    -0.11800
C598        C  0.13012368  0.24002350  0.44828705     0.05500
C599        C  0.13065986  0.20169222  0.39987442     0.27900
C600        C  0.16045444  0.17547564  0.39564677    -0.12500
C601        C  0.17431086  0.17259775  0.37756980     0.06000
C602        C  0.16452185  0.20072670  0.36464710    -0.08500
C603        C  0.13470142  0.22704008  0.36884019     0.06800
C604        C  0.11618863  0.22593971  0.38603672    -0.12800
Br605      Br  0.18846661  0.25477609  0.42024610    -0.04900
Br606      Br  0.02679573  0.17595551  0.45459167     0.00700
Br607      Br  0.21215719  0.13455418  0.37108833     0.01200
Br608      Br  0.07419660  0.26066121  0.39138647    -0.03200
Br609      Br  0.15855943  0.27677809  0.46236574     0.01300
Br610      Br  0.04655848  0.16882459  0.41012944    -0.02500
Br611      Br  0.18766415  0.14934656  0.41520439    -0.03400
Br612      Br  0.12330274  0.26806982  0.35218912     0.00600
C613        C  0.00058080  0.32467625  0.44883723     0.02000
C614        C  0.50980671  0.36325734  0.44851069     0.04800
C615        C  0.50365254  0.38456177  0.43239720    -0.11300
C616        C  0.99054109  0.36678549  0.41631301     0.24100
C617        C  0.98044104  0.32848730  0.41677784    -0.11800
C618        C  0.98370288  0.30800031  0.43318713     0.05500
C619        C  0.98795037  0.38755066  0.39866744     0.27900
C620        C  0.45346965  0.40764166  0.39405472    -0.12500
C621        C  0.44925375  0.42417326  0.37659743     0.06000
C622        C  0.98033648  0.42194817  0.36398473    -0.08500
C623        C  0.01489223  0.40166132  0.36859256     0.06800
C624        C  0.01886310  0.38492010  0.38596301    -0.12800
Br625      Br  0.96557289  0.30328120  0.39449430    -0.04900
Br626      Br  0.53405664  0.38597146  0.46961067     0.00700
Br627      Br  0.40260932  0.45265869  0.37037807     0.01200
Br628      Br  0.06790290  0.36119224  0.39296627    -0.03200
Br629      Br  0.96802128  0.25595359  0.43389846     0.01300
Br630      Br  0.51503390  0.43754586  0.43205119    -0.02500
Br631      Br  0.41434517  0.41571985  0.41250614    -0.03400
Br632      Br  0.05810894  0.39939088  0.35149911     0.00600
C633        C  0.12005830  0.54333628  0.35905151     0.02000
C634        C  0.11701277  0.07158057  0.37100311     0.04800
C635        C  0.13326163  0.06752633  0.38858287    -0.11300
C636        C  0.15892461  0.53746281  0.39300149     0.24100
C637        C  0.17079627  0.51449501  0.37840431    -0.11800
C638        C  0.14974357  0.51587642  0.36175802     0.05500
C639        C  0.17024240  0.52768194  0.41209226     0.27900
C640        C  0.20767684  0.04587822  0.41927420    -0.12500
C641        C  0.21592774  0.03906553  0.43786500     0.06000
C642        C  0.18929488  0.50992175  0.44871792    -0.08500
C643        C  0.15459702  0.49561323  0.44075845     0.06800
C644        C  0.14490133  0.50472189  0.42253795    -0.12800
Br645      Br  0.21277576  0.47860308  0.38183739    -0.04900
Br646      Br  0.08106720  0.11223235  0.36538117     0.00700
Br647      Br  0.26253193  0.06004944  0.44904182     0.01200
Br648      Br  0.09860420  0.48331113  0.41127764    -0.03200
Br649      Br  0.15850418  0.47751309  0.34367340     0.01300
Br650      Br  0.10871598  0.09296708  0.40862020    -0.02500
Br651      Br  0.24630659  0.07092449  0.40439345    -0.03400
Br652      Br  0.12257036  0.46076457  0.45443752     0.00600
C653        C  0.29235733  0.33307734  0.36880995     0.02000
C654        C  0.32595891  0.32718353  0.37993590     0.04800
C655        C  0.32609715  0.33930129  0.39820286    -0.11300
C656        C  0.29334092  0.35865645  0.40518511     0.24100
C657        C  0.25993449  0.36518191  0.39403827    -0.11800
C658        C  0.25938234  0.35235063  0.37589760     0.05500
C659        C  0.29504471  0.37503369  0.42371932     0.27900
C660        C  0.28165976  0.35484432  0.43915618    -0.12500
C661        C  0.27402923  0.37406280  0.45554203     0.06000
C662        C  0.28400335  0.41230785  0.45697612    -0.08500
C663        C  0.30573071  0.42949076  0.44280097     0.06800
C664        C  0.30714939  0.41251954  0.42561056    -0.12800
Br665      Br  0.21413952  0.38973245  0.40412135    -0.04900
Br666      Br  0.36918120  0.29758242  0.37082076     0.00700
Br667      Br  0.24502077  0.34982663  0.47488998     0.01200
Br668      Br  0.31842433  0.44266638  0.40419837    -0.03200
Br669      Br  0.21205071  0.35801169  0.36127149     0.01300
Br670      Br  0.36922288  0.32629557  0.41431053    -0.02500
Br671      Br  0.27063778  0.30210206  0.43738639    -0.03400
Br672      Br  0.32631660  0.47940453  0.44596137     0.00600
C673        C  0.20515380  0.15459006  0.63083397     0.02000
C674        C  0.19509213  0.17688947  0.61540840     0.04800
C675        C  0.19012766  0.16029179  0.59814382    -0.11300
C676        C  0.19332973  0.12102444  0.59635748     0.24100
C677        C  0.19922298  0.09834753  0.61211243    -0.11800
C678        C  0.20591339  0.11515897  0.62925220     0.05500
C679        C  0.19579312  0.10413697  0.57787266     0.27900
C680        C  0.16500300  0.08168340  0.57081422    -0.12500
C681        C  0.17155912  0.05957925  0.55523904     0.06000
C682        C  0.20825009  0.06091219  0.54639874    -0.08500
C683        C  0.23676948  0.08728610  0.55191777     0.06800
C684        C  0.23121709  0.10788761  0.56798065    -0.12800
Br685      Br  0.19994147  0.04427784  0.61013257    -0.04900
Br686      Br  0.18710162  0.23017736  0.61812006     0.00700
Br687      Br  0.13268388  0.02346656  0.54748532     0.01200
Br688      Br  0.27448410  0.13701256  0.57770611    -0.03200
Br689      Br  0.21900365  0.08439174  0.65023864     0.01300
Br690      Br  0.17803305  0.19105770  0.57695322    -0.02500
Br691      Br  0.11545400  0.07776847  0.58337981    -0.03400
Br692      Br  0.28649248  0.08982403  0.53917759     0.00600
C693        C  0.49942226  0.12872023  0.64308976     0.02000
C694        C  0.03882283  0.12798624  0.63726540     0.04800
C695        C  0.04939900  0.14645090  0.62098233    -0.11300
C696        C  0.52058201  0.16289337  0.60951379     0.24100
C697        C  0.48134413  0.16512673  0.61574262    -0.11800
C698        C  0.47101459  0.14894382  0.63271194     0.05500
C699        C  0.53076130  0.17542699  0.59053034     0.27900
C700        C  0.54856203  0.21062181  0.58737158    -0.12500
C701        C  0.55333618  0.22408123  0.56931634     0.06000
C702        C  0.53777198  0.20382695  0.55435821    -0.08500
C703        C  0.02393760  0.16697574  0.55743981     0.06800
C704        C  0.02063680  0.15272305  0.57544983    -0.12800
Br705      Br  0.44145739  0.18883286  0.60065767    -0.04900
Br706      Br  0.07755263  0.09803826  0.65035856     0.00700
Br707      Br  0.57504482  0.27337625  0.56504248     0.01200
Br708      Br  0.99865601  0.10342159  0.57958476    -0.03200
Br709      Br  0.41742946  0.15255065  0.64132270     0.01300
Br710      Br  0.10341252  0.14891121  0.61442651    -0.02500
Br711      Br  0.56205812  0.24226831  0.60778055    -0.03400
Br712      Br  0.00439779  0.13831198  0.53706940     0.00600
C713        C  0.29219645  0.95408847  0.55618505     0.02000
C714        C  0.32880109  0.46421062  0.55956515     0.04800
C715        C  0.34517471  0.46320531  0.57726977    -0.11300
C716        C  0.32347332  0.95299413  0.59184622     0.24100
C717        C  0.28772696  0.93443464  0.58813076    -0.11800
C718        C  0.27273957  0.93399570  0.57015958     0.05500
C719        C  0.33316710  0.96458368  0.61080424     0.27900
C720        C  0.35152720  0.43686453  0.62324309    -0.12500
C721        C  0.36719377  0.45009157  0.63977302     0.06000
C722        C  0.36136282  0.99066249  0.64460369    -0.08500
C723        C  0.33983375  0.01503756  0.63296977     0.06800
C724        C  0.32628441  0.00218507  0.61596705    -0.12800
Br725      Br  0.25645304  0.91483705  0.60795300    -0.04900
Br726      Br  0.35545298  0.49128968  0.54030741     0.00700
Br727      Br  0.39781788  0.41652853  0.65523795     0.01200
Br728      Br  0.30146905  0.03705923  0.59907900    -0.03200
Br729      Br  0.22164891  0.91248388  0.56520234     0.01300
Br730      Br  0.39625428  0.48526457  0.58180476    -0.02500
Br731      Br  0.35777171  0.38516491  0.61726413    -0.03400
Br732      Br  0.33245852  0.06703046  0.63962749     0.00600
O733        O  0.39637415  0.92938122  0.27672167    -0.57200
C734        C  0.32631661  0.83426457  0.27446491     0.75500
O735        O  0.33934986  0.89792088  0.22319558    -0.58300
C736        C  0.43059369  0.93818988  0.27118256     0.75400
C737        C  0.43853595  0.84074395  0.23213407     0.77800
Cd738      Cd  0.37815813  0.88492197  0.25162584     1.37500
O739        O  0.35827234  0.84864754  0.28004950    -0.57200
O740        O  0.43876313  0.84120200  0.24942927    -0.56000
C741        C  0.32811270  0.93121641  0.22628375     0.77800
O742        O  0.40897375  0.85644901  0.22464944    -0.58300
O743        O  0.31790941  0.84197449  0.25799575    -0.56800
O744        O  0.43964403  0.92575003  0.25559441    -0.56800
O745        O  0.33931933  0.94414102  0.24157248    -0.56000
N746        N  0.43923160  0.55175849  0.66356640    -0.36000
N747        N  0.41136176  0.99958811  0.68974780    -0.56500
N748        N  0.46911990  0.52398987  0.71695355    -0.36000
N749        N  0.99626009  0.57856000  0.68940562    -0.56500
C750        C  0.42064194  0.52671261  0.65285539     0.27600
C751        C  0.46435275  0.57071888  0.65275116     0.27600
C752        C  0.45696743  0.99233270  0.72440641     0.27600
C753        C  0.00380937  0.53519756  0.72463154     0.27600
C754        C  0.38165503  0.99902534  0.67737505     0.36200
C755        C  0.39736492  0.98359505  0.70510228     0.36200
C756        C  0.99735597  0.60665083  0.67677866     0.36200
C757        C  0.01505522  0.59131246  0.70444178     0.36200
C758        C  0.43443497  0.52935202  0.63506634    -0.21200
C759        C  0.46214278  0.55740063  0.63499089    -0.21200
C760        C  0.48530402  0.98193683  0.73725570    -0.21200
C761        C  0.01477181  0.50878149  0.73779713    -0.21200
C762        C  0.34808791  0.98356512  0.68490418    -0.22300
C763        C  0.35791418  0.97401195  0.70261068    -0.22300
C764        C  0.01628281  0.63771414  0.68381892    -0.22300
C765        C  0.02740068  0.62813435  0.70136476    -0.22300
C766        C  0.38876624  0.50461908  0.65858324    -0.17600
C767        C  0.48589361  0.60220553  0.65834249    -0.17600
C768        C  0.02509196  0.56879716  0.71997118    -0.17600
C769        C  0.42178918  0.97182506  0.71982658    -0.17600
H770        H  0.42476412  0.51348412  0.62329732     0.15300
H771        H  0.47813622  0.56744432  0.62316028     0.15300
H772        H  0.48557712  0.95677413  0.74565259     0.15300
H773        H  0.04083591  0.50934074  0.74640300     0.15300
H774        H  0.32020951  0.97828785  0.67811344     0.13600
H775        H  0.33867393  0.96016236  0.71229540     0.13500
H776        H  0.02259414  0.66392557  0.67683002     0.13600
H777        H  0.04340525  0.64616548  0.71065333     0.13500
H778        H  0.43130128  0.55910278  0.67683393     0.26800
H779        H  0.45222256  0.53981644  0.70779676     0.26800
C780        C  0.26551068  0.46985603  0.54279030    -0.10200
C781        C  0.24422026  0.50023180  0.54943595    -0.04100
C782        C  0.22266941  0.52400918  0.53796826    -0.10200
C783        C  0.21913812  0.51552115  0.51920575     0.10800
C784        C  0.23999994  0.48401434  0.51221619    -0.02000
C785        C  0.26640916  0.96554191  0.52340047     0.10600
C786        C  0.28958400  0.93680822  0.51590279    -0.12000
C787        C  0.28849652  0.92963696  0.49715622    -0.12000
C788        C  0.26297660  0.94994110  0.48550879     0.10600
C789        C  0.23960967  0.97948917  0.49279529    -0.02000
C790        C  0.19589222  0.53758503  0.50729879    -0.12100
C791        C  0.19219874  0.52827005  0.48884334    -0.12100
C792        C  0.21247384  0.49722381  0.48170813     0.10800
C793        C  0.21162315  0.99185562  0.46248604    -0.10200
C794        C  0.23251753  0.96127119  0.45592478    -0.04100
C795        C  0.25981384  0.94179192  0.46669270    -0.10200
H796        H  0.30887031  0.91987776  0.52450390     0.08000
H797        H  0.30711148  0.90749317  0.49188018     0.08000
H798        H  0.17990453  0.56179413  0.51228443     0.08200
H799        H  0.17339411  0.54551143  0.48015762     0.08200
H800        H  0.24638196  0.50692447  0.56389480     0.04600
H801        H  0.22982103  0.95433881  0.44150574     0.04600
N802        N  0.01702338  0.00126200  0.28581781    -0.36000
N803        N  0.47758354  0.96160203  0.31612001    -0.56500
N804        N  0.03344803  0.99558234  0.34102293    -0.36000
N805        N  0.06818955  0.53834967  0.31313914    -0.56500
C806        C  0.48423459  0.98790278  0.27719576     0.27600
C807        C  0.03085776  0.53068797  0.27586825     0.27600
C808        C  0.00677268  0.98069744  0.35254626     0.27600
C809        C  0.05627897  0.01894545  0.35092274     0.27600
C810        C  0.46231213  0.94304798  0.30168129     0.36200
C811        C  0.47333494  0.93869985  0.33089229     0.36200
C812        C  0.08566406  0.54800688  0.29732031     0.36200
C813        C  0.09565331  0.54285828  0.32646230     0.36200
C814        C  0.47887758  0.00810304  0.26105608    -0.21200
C815        C  0.00773784  0.53552352  0.26029739    -0.21200
C816        C  0.01181084  0.99552010  0.36986813    -0.21200
C817        C  0.04321809  0.01946552  0.36889157    -0.21200
C818        C  0.44770258  0.90844470  0.30749418    -0.22300
C819        C  0.45478714  0.90574782  0.32599569    -0.22300
C820        C  0.12445201  0.55888627  0.30070942    -0.22300
C821        C  0.13059606  0.55591392  0.31921461    -0.22300
C822        C  0.45979362  0.95753019  0.28352399    -0.17600
C823        C  0.06580424  0.55162699  0.28029615    -0.17600
C824        C  0.09163814  0.03504672  0.34452950    -0.17600
C825        C  0.98519794  0.94805359  0.34880681    -0.17600
H826        H  0.45556537  0.00438120  0.25106285     0.15300
H827        H  0.01202836  0.55597595  0.24946808     0.15300
H828        H  0.99636553  0.98787105  0.38225213     0.15300
H829        H  0.05570100  0.03392353  0.38046617     0.15300
H830        H  0.43392671  0.88695294  0.29925654     0.13600
H831        H  0.44715070  0.88234570  0.33482267     0.13500
H832        H  0.14603806  0.56845438  0.29088084     0.13600
H833        H  0.15749028  0.56280010  0.32649265     0.13500
H834        H  0.03014978  0.98935464  0.29736382     0.26800
H835        H  0.04064846  0.98460102  0.32832196     0.26800
C836        C  0.46351385  0.76734062  0.53406528    -0.10200
C837        C  0.48447255  0.74288177  0.54539676    -0.04100
C838        C  0.51858527  0.72460063  0.53979531    -0.10200
C839        C  0.03207717  0.72998163  0.52157140     0.10800
C840        C  0.51158128  0.75588872  0.50989765    -0.02000
C841        C  0.47712074  0.77468262  0.51617966     0.10600
C842        C  0.45740130  0.80013226  0.50450710    -0.12000
C843        C  0.47191900  0.80819662  0.48709308    -0.12000
C844        C  0.50616470  0.79049091  0.48067315     0.10600
C845        C  0.02562693  0.76324291  0.49193975    -0.02000
C846        C  0.06480991  0.71045915  0.51463727    -0.12100
C847        C  0.07714323  0.71601733  0.49650816    -0.12100
C848        C  0.05836724  0.74265060  0.48507819     0.10800
C849        C  0.07119831  0.74977997  0.46693428    -0.10200
C850        C  0.05442362  0.77942214  0.45700940    -0.04100
C851        C  0.02154490  0.79887382  0.46317369    -0.10200
H852        H  0.43090176  0.81441867  0.50892167     0.08000
H853        H  0.45619251  0.82850588  0.47866954     0.08000
H854        H  0.08064951  0.69038758  0.52315129     0.08200
H855        H  0.10220729  0.70015569  0.49159918     0.08200
H856        H  0.47412229  0.73836760  0.55929733     0.04600
H857        H  0.06473214  0.78501131  0.44319866     0.04600
N858        N  0.27107827  0.72187883  0.65271430    -0.36000
N859        N  0.29910647  0.77720656  0.67751546    -0.56500
N860        N  0.24300062  0.74855296  0.70546716    -0.36000
N861        N  0.21766443  0.69060954  0.67946552    -0.56500
C862        C  0.30286376  0.73476023  0.64362302     0.27600
C863        C  0.26058740  0.68924266  0.64487121     0.27600
C864        C  0.26813045  0.76974153  0.71576380     0.27600
C865        C  0.22415471  0.72365020  0.71673492     0.27600
C866        C  0.31245080  0.79216947  0.66157264     0.36200
C867        C  0.30060204  0.80475540  0.69011588     0.36200
C868        C  0.20238864  0.67606130  0.66386050     0.36200
C869        C  0.18959719  0.68727618  0.69244558     0.36200
C870        C  0.31360413  0.70939279  0.63020988    -0.21200
C871        C  0.28687243  0.68045825  0.63104449    -0.21200
C872        C  0.26473449  0.75832236  0.73389316    -0.21200
C873        C  0.23719932  0.72955588  0.73449778    -0.21200
C874        C  0.32243849  0.82942111  0.66396892    -0.22300
C875        C  0.31499021  0.83745453  0.68203973    -0.22300
C876        C  0.16440754  0.66356434  0.66683228    -0.22300
C877        C  0.15629451  0.67043365  0.68495841    -0.22300
C878        C  0.31771604  0.77145445  0.64530931    -0.17600
C879        C  0.22359650  0.67220559  0.64736076    -0.17600
C880        C  0.19520640  0.69634279  0.71122245    -0.17600
C881        C  0.29320885  0.79946831  0.70911391    -0.17600
H882        H  0.33683066  0.71243664  0.62021304     0.15300
H883        H  0.28529552  0.65697165  0.62174030     0.15300
H884        H  0.28076601  0.76904822  0.74556140     0.15300
H885        H  0.22846141  0.71438872  0.74668333     0.15300
H886        H  0.33426333  0.84856636  0.65384775     0.13600
H887        H  0.31976569  0.86436094  0.68848699     0.13500
H888        H  0.14491054  0.65051744  0.65701800     0.13600
H889        H  0.12886290  0.66395164  0.69177647     0.13500
H890        H  0.25309429  0.73780257  0.66114254     0.26800
H891        H  0.23707095  0.75266843  0.69163904     0.26800
N892        N  0.25002819  0.75988331  0.28989844    -0.36000
N893        N  0.20815978  0.71176082  0.31728461    -0.56500
N894        N  0.24429029  0.75418375  0.34536081    -0.36000
N895        N  0.28854983  0.80009912  0.31979540    -0.56500
C896        C  0.23685377  0.73107645  0.27927889     0.27600
C897        C  0.27872683  0.77889715  0.28061765     0.27600
C898        C  0.22757855  0.72624608  0.35514654     0.27600
C899        C  0.27087602  0.77068810  0.35638912     0.27600
C900        C  0.18932038  0.70259193  0.30165948     0.36200
C901        C  0.18327368  0.70330617  0.33119851     0.36200
C902        C  0.29843112  0.82276243  0.30563365     0.36200
C903        C  0.29253957  0.82069117  0.33522237     0.36200
C904        C  0.25716009  0.73215661  0.26285872    -0.21200
C905        C  0.28334519  0.76207987  0.26369011    -0.21200
C906        C  0.24474401  0.72425316  0.37240165    -0.21200
C907        C  0.27219617  0.75216145  0.37314654    -0.21200
C908        C  0.15238714  0.68778116  0.30579373    -0.22300
C909        C  0.14866818  0.68822373  0.32451427    -0.22300
C910        C  0.30909267  0.85790878  0.31222969    -0.22300
C911        C  0.30526309  0.85654835  0.33097263    -0.22300
C912        C  0.20594369  0.70500833  0.28386483    -0.17600
C913        C  0.30002697  0.81134611  0.28702431    -0.17600
C914        C  0.28671092  0.80645905  0.35308920    -0.17600
C915        C  0.19264495  0.70804416  0.34986550    -0.17600
H916        H  0.25367868  0.71328089  0.25143038     0.15300
H917        H  0.30370511  0.77017500  0.25303729     0.15300
H918        H  0.23720219  0.70631928  0.38380871     0.15300
H919        H  0.28895059  0.75947713  0.38522243     0.15300
H920        H  0.13008173  0.67803947  0.29631432     0.13600
H921        H  0.12354917  0.67853780  0.33229432     0.13500
H922        H  0.31825913  0.88224277  0.30439243     0.13600
H923        H  0.31144961  0.87915100  0.34038863     0.13500
H924        H  0.23775302  0.76787849  0.30226818     0.26800
H925        H  0.23250110  0.76625898  0.33351771     0.26800
C926        C  0.97710887  0.96346668  0.03912273    -0.10200
C927        C  0.00917490  0.98234514  0.04663321    -0.04100
C928        C  0.03331031  0.00556068  0.03627585    -0.10200
C929        C  0.02399183  0.51094646  0.01736330     0.10800
C930        C  0.99338662  0.99131390  0.00934447    -0.02000
C931        C  0.46974274  0.96656114  0.02005246     0.10600
C932        C  0.43989596  0.94581239  0.01137707    -0.12000
C933        C  0.43345442  0.94916760  0.99248407    -0.12000
C934        C  0.45525481  0.97483980  0.98191599     0.10600
C935        C  0.48333568  0.49623418  0.99047019    -0.02000
C936        C  0.04663972  0.53535446  0.00648946    -0.12100
C937        C  0.03712059  0.54153481  0.98810724    -0.12100
C938        C  0.00534404  0.52269509  0.97992351     0.10800
C939        C  0.49475207  0.52908417  0.96140635    -0.10200
C940        C  0.46425307  0.50831292  0.95371263    -0.04100
C941        C  0.44500005  0.47997815  0.96332367    -0.10200
H942        H  0.42175246  0.92651847  0.01914470     0.08000
H943        H  0.41046897  0.93239949  0.98625478     0.08000
H944        H  0.07142945  0.55041190  0.01225519     0.08200
H945        H  0.05480439  0.56116521  0.98030752     0.08200
H946        H  0.01531106  0.97927231  0.06118555     0.04600
H947        H  0.45674902  0.51284440  0.93938119     0.04600
N948        N  0.25001835  0.50094979  0.78880202    -0.36000
N949        N  0.29510620  0.95306790  0.81564111    -0.56500
N950        N  0.25839914  0.49454275  0.84452712    -0.36000
N951        N  0.21158710  0.54017029  0.81924982    -0.56500
C952        C  0.26223624  0.97141774  0.77814176     0.27600
C953        C  0.22050652  0.51975291  0.77976601     0.27600
C954        C  0.27716351  0.46734271  0.85419058     0.27600
C955        C  0.23320395  0.51140238  0.85604873     0.27600
C956        C  0.31221164  0.94328629  0.79977955     0.36200
C957        C  0.32112704  0.94389394  0.82911517     0.36200
C958        C  0.20071623  0.56294667  0.80514289     0.36200
C959        C  0.20764873  0.56042957  0.83482953     0.36200
C960        C  0.24072463  0.97221709  0.76196663    -0.21200
C961        C  0.21388929  0.00162518  0.76315335    -0.21200
C962        C  0.26283642  0.46625919  0.87192570    -0.21200
C963        C  0.23495583  0.49386976  0.87306495    -0.21200
C964        C  0.34918456  0.92753247  0.80332806    -0.22300
C965        C  0.35465057  0.92776887  0.82192758    -0.22300
C966        C  0.18946998  0.59776279  0.81199745    -0.22300
C967        C  0.19372359  0.59602995  0.83073545    -0.22300
C968        C  0.29389418  0.94568429  0.78229797    -0.17600
C969        C  0.19916042  0.55209257  0.78633641    -0.17600
C970        C  0.21552180  0.54660014  0.85272205    -0.17600
C971        C  0.31395929  0.94874918  0.84788795    -0.17600
H972        H  0.24383062  0.95344297  0.75048279     0.15300
H973        H  0.19398930  0.51062338  0.75234839     0.15300
H974        H  0.27259139  0.44902901  0.88330346     0.15300
H975        H  0.21990600  0.50169591  0.88547396     0.15300
H976        H  0.37031988  0.91712398  0.79354235     0.13600
H977        H  0.38023917  0.91728165  0.82930258     0.13500
H978        H  0.18003415  0.62239335  0.80438336     0.13600
H979        H  0.18755551  0.61845313  0.84024041     0.13500
H980        H  0.26279542  0.50902707  0.80111081     0.26800
H981        H  0.26789431  0.50590538  0.83218063     0.26800
N982        N  0.46472935  0.72750538  0.84118069    -0.36000
N983        N  0.42956786  0.77500247  0.81395984    -0.56500
N984        N  0.48146068  0.73983150  0.78612997    -0.36000
N985        N  0.01921813  0.69471467  0.81521664    -0.56500
C986        C  0.44359817  0.75089767  0.85181512     0.27600
C987        C  0.49087702  0.70984535  0.85225137     0.27600
C988        C  0.46581181  0.76900936  0.77624013     0.27600
C989        C  0.01305282  0.72564664  0.77690759     0.27600
C990        C  0.40261149  0.77951843  0.82745261     0.36200
C991        C  0.41285542  0.78837251  0.79839745     0.36200
C992        C  0.02402722  0.67033683  0.82940119     0.36200
C993        C  0.03557172  0.67832712  0.80047205     0.36200
C994        C  0.45711607  0.74829888  0.86976839    -0.21200
C995        C  0.48708280  0.72269885  0.86998689    -0.21200
C996        C  0.48746653  0.77285923  0.76027117    -0.21200
C997        C  0.01689963  0.74562595  0.76065621    -0.21200
C998        C  0.36877113  0.79616619  0.82057687    -0.22300
C999        C  0.37501469  0.80149575  0.80218814    -0.22300
C1000       C  0.04384944  0.63851004  0.82383851    -0.22300
C1001       C  0.05124052  0.64349247  0.80551870    -0.22300
C1002       C  0.40931634  0.77032359  0.84605728    -0.17600
C1003       C  0.51239945  0.67765713  0.84749922    -0.17600
C1004       C  0.03789894  0.69480607  0.78270872    -0.17600
C1005       C  0.43200192  0.79142375  0.78111825    -0.17600
H1006       H  0.44607037  0.76187526  0.88183695     0.15300
H1007       H  0.50263370  0.71307829  0.88211586     0.15300
H1008       H  0.48277943  0.79325696  0.74942373     0.15300
H1009       H  0.03889927  0.74134325  0.75020521     0.15300
H1010       H  0.34242751  0.80368637  0.82802037     0.13600
H1011       H  0.35376787  0.81351873  0.79270109     0.13500
H1012       H  0.05230705  0.61444010  0.83213239     0.13600
H1013       H  0.06599172  0.62333333  0.79689067     0.13500
H1014       H  0.45695473  0.71889986  0.82808371     0.26800
H1015       H  0.46942064  0.72853278  0.79795798     0.26800
O1016       O  0.09619065  0.61103922  0.27371315    -0.57200
C1017       C  0.18795962  0.67911371  0.26992983     0.75500
O1018       O  0.15182624  0.59771613  0.21890567    -0.58300
C1019       C  0.08364953  0.58009804  0.26760726     0.75400
C1020       C  0.08939431  0.69389225  0.23017677     0.77800
Cd1021     Cd  0.13531244  0.63253820  0.24730034     1.37500
O1022       O  0.17718315  0.64613571  0.27434631    -0.57200
O1023       O  0.08977678  0.69036210  0.24737166    -0.56000
C1024       C  0.18516178  0.58416915  0.22337978     0.77800
O1025       O  0.10554371  0.66728553  0.22150135    -0.58300
O1026       O  0.17889538  0.68942817  0.25383503    -0.56800
O1027       O  0.09151238  0.57384699  0.25105743    -0.56800
O1028       O  0.19724066  0.59361409  0.23913313    -0.56000
N1029       N  0.22454921  0.97605184  0.15495706    -0.36000
N1030       N  0.20085163  0.53545073  0.17921482    -0.56500
N1031       N  0.25668260  0.00641002  0.20688619    -0.36000
N1032       N  0.27858127  0.94512085  0.18093634    -0.56500
C1033       C  0.19201080  0.98939481  0.14650359     0.27600
C1034       C  0.23292643  0.94264415  0.14728669     0.27600
C1035       C  0.23275534  0.52872823  0.21702258     0.27600
C1036       C  0.27572001  0.98127861  0.21805304     0.27600
C1037       C  0.18680761  0.54972861  0.16322471     0.36200
C1038       C  0.19985572  0.56359539  0.19150008     0.36200
C1039       C  0.29221160  0.92874021  0.16542741     0.36200
C1040       C  0.30760486  0.94248997  0.19365837     0.36200
C1041       C  0.17868255  0.96362332  0.13372122    -0.21200
C1042       C  0.20455931  0.93391574  0.13426680    -0.21200
C1043       C  0.23693138  0.51730766  0.23512085    -0.21200
C1044       C  0.26426134  0.98813261  0.23593974    -0.21200
C1045       C  0.17701649  0.58719329  0.16522675    -0.22300
C1046       C  0.18524730  0.59605315  0.18315134    -0.22300
C1047       C  0.33015135  0.91571695  0.16821466    -0.22300
C1048       C  0.33994196  0.92421776  0.18607540    -0.22300
C1049       C  0.17869312  0.02666999  0.14792197    -0.17600
C1050       C  0.26947473  0.92434766  0.14920387    -0.17600
C1051       C  0.30359130  0.95302886  0.21239343    -0.17600
C1052       C  0.20773912  0.55881941  0.21048616    -0.17600
H1053       H  0.15416782  0.96674621  0.12429060     0.15300
H1054       H  0.20409885  0.90987711  0.12527108     0.15300
H1055       H  0.22191799  0.52848020  0.24690760     0.15300
H1056       H  0.27336444  0.97301805  0.24814006     0.15300
H1057       H  0.16449061  0.60587611  0.15500306     0.13600
H1058       H  0.18068993  0.62326697  0.18932353     0.13500
H1059       H  0.34858263  0.90148392  0.15843701     0.13600
H1060       H  0.36788488  0.91783357  0.19264397     0.13500
H1061       H  0.24397736  0.99208845  0.16272660     0.26800
H1062       H  0.26170588  0.00967808  0.19293631     0.26800
C1063       C  0.24158381  0.67382597  0.96933501    -0.10200
C1064       C  0.26776632  0.69458495  0.95868651    -0.04100
C1065       C  0.28566706  0.72710599  0.96502016    -0.10200
C1066       C  0.28003729  0.73811509  0.98339002     0.10800
C1067       C  0.25641524  0.71528327  0.99505751    -0.02000
C1068       C  0.23688132  0.68298858  0.98799589     0.10600
C1069       C  0.21362099  0.66097817  0.99972960    -0.12000
C1070       C  0.21065738  0.66959040  0.01829886    -0.12000
C1071       C  0.22889299  0.70176642  0.02545879     0.10600
C1072       C  0.25139540  0.72535614  0.01366345    -0.02000
C1073       C  0.29705394  0.77105388  0.99036860    -0.12100
C1074       C  0.29106046  0.78162415  0.00854760    -0.12100
C1075       C  0.26864418  0.75911981  0.02042518     0.10800
C1076       C  0.26254491  0.76915987  0.03892692    -0.10200
C1077       C  0.24159000  0.74501027  0.05024629    -0.04100
C1078       C  0.22516725  0.71157693  0.04407323    -0.10200
H1079       H  0.19842345  0.63637851  0.99468542     0.08000
H1080       H  0.19338251  0.65125509  0.02699241     0.08000
H1081       H  0.31499136  0.78892623  0.98173944     0.08200
H1082       H  0.30443945  0.80736810  0.01334265     0.08200
H1083       H  0.27173256  0.68695536  0.94443535     0.04600
H1084       H  0.23768085  0.75270838  0.06448150     0.04600
O1085       O  0.10217490  0.66863705  0.77568678    -0.57200
C1086       C  0.17312949  0.57550253  0.77355132     0.75500
O1087       O  0.08964909  0.59652833  0.72317379    -0.58300
C1088       C  0.06769043  0.67713072  0.77012087     0.75400
C1089       C  0.17134003  0.67394281  0.72504839     0.77800
Cd1090     Cd  0.12155221  0.62624702  0.75006094     1.37500
O1091       O  0.14332729  0.59330544  0.77922325    -0.57200
O1092       O  0.16004474  0.68636495  0.74037346    -0.56000
C1093       C  0.05991746  0.58223908  0.73096087     0.77800
O1094       O  0.16046717  0.64064136  0.72176484    -0.58300
O1095       O  0.17941079  0.57978658  0.75663135    -0.56800
O1096       O  0.05910370  0.66591977  0.75420286    -0.56800
O1097       O  0.06036388  0.58378519  0.74822362    -0.56000
O1098       O  0.40131403  0.85120154  0.77395283    -0.57200
C1099       C  0.31096772  0.91981481  0.76823793     0.75500
O1100       O  0.39076401  0.91078192  0.72055624    -0.58300
C1101       C  0.41435554  0.82017565  0.76814464     0.75400
C1102       C  0.31577783  0.82465574  0.72207625     0.77800
Cd1103     Cd  0.36450574  0.87335562  0.74632898     1.37500
O1104       O  0.32045746  0.88628842  0.77241289    -0.57200
O1105       O  0.30282072  0.83538608  0.73741069    -0.56000
C1106       C  0.40889346  0.93613489  0.72933105     0.77800
O1107       O  0.34973518  0.83696168  0.71806982    -0.58300
O1108       O  0.32146375  0.93080853  0.75252368    -0.56800
O1109       O  0.40823965  0.81444920  0.75132936    -0.56800
O1110       O  0.41178511  0.93032583  0.74636474    -0.56000
N1111       N  0.02855828  0.78227960  0.21750428    -0.36000
N1112       N  0.49561551  0.83209180  0.18925058    -0.56500
N1113       N  0.05155632  0.80456056  0.16296924    -0.36000
N1114       N  0.08314016  0.75454306  0.18966085    -0.56500
C1115       C  0.49414322  0.79311346  0.22542678     0.27600
C1116       C  0.04039451  0.74903530  0.22513841     0.27600
C1117       C  0.02444301  0.82140726  0.15219515     0.27600
C1118       C  0.07128814  0.78011309  0.15240642     0.27600
C1119       C  0.47989568  0.84705725  0.20447177     0.36200
C1120       C  0.49255197  0.85873245  0.17598893     0.36200
C1121       C  0.09836034  0.73918478  0.20501430     0.36200
C1122       C  0.11168287  0.75267768  0.17687026     0.36200
C1123       C  0.48445506  0.76679355  0.23875269    -0.21200
C1124       C  0.01344675  0.73899145  0.23851833    -0.21200
C1125       C  0.02660648  0.80740449  0.13456846    -0.21200
C1126       C  0.05635076  0.78109557  0.13470480    -0.21200
C1127       C  0.46756005  0.88375027  0.20082672    -0.22300
C1128       C  0.47525406  0.89093153  0.18271389    -0.22300
C1129       C  0.13738684  0.72862656  0.20205925    -0.22300
C1130       C  0.14565626  0.73690830  0.18411503    -0.22300
C1131       C  0.47209973  0.82634396  0.22073480    -0.17600
C1132       C  0.07532151  0.72858548  0.22026505    -0.17600
C1133       C  0.10464221  0.75978675  0.15823079    -0.17600
C1134       C  0.00191347  0.85248189  0.15753823    -0.17600
H1135       H  0.45885502  0.76713059  0.24751812     0.15300
H1136       H  0.01427956  0.71413465  0.24712712     0.15300
H1137       H  0.00938399  0.81609684  0.12276087     0.15300
H1138       H  0.06652793  0.76533174  0.12302809     0.15300
H1139       H  0.45383701  0.90326978  0.21013798     0.13600
H1140       H  0.46830552  0.91654108  0.17526755     0.13500
H1141       H  0.15734112  0.71490482  0.21161881     0.13600
H1142       H  0.17278633  0.73061893  0.17701222     0.13500
H1143       H  0.04455541  0.79817691  0.20813751     0.26800
H1144       H  0.05985712  0.81327521  0.17601708     0.26800
C1145       C  0.20405879  0.68992868  0.05840076     0.02000
C1146       C  0.16387814  0.69840542  0.06100196     0.04800
C1147       C  0.14922695  0.70269346  0.07883198    -0.11300
C1148       C  0.17456252  0.69751500  0.09400466     0.24100
C1149       C  0.21276065  0.68295532  0.09143038    -0.11800
C1150       C  0.22703659  0.67799978  0.07356889     0.05500
C1151       C  0.16251807  0.71203880  0.11212330     0.27900
C1152       C  0.16743471  0.75046449  0.11605056    -0.12500
C1153       C  0.15193971  0.76548128  0.13222897     0.06000
C1154       C  0.12984240  0.74239741  0.14409978    -0.08500
C1155       C  0.12577815  0.70379655  0.14040351     0.06800
C1156       C  0.14261867  0.68873486  0.12457855    -0.12800
Br1157     Br  0.24720690  0.67514318  0.11219927    -0.04900
Br1158     Br  0.13091569  0.71055616  0.04022873     0.00700
Br1159     Br  0.15844727  0.81821172  0.13752668     0.01200
Br1160     Br  0.13500755  0.63700658  0.11903039    -0.03200
Br1161     Br  0.28114396  0.66320503  0.06973600     0.01300
Br1162     Br  0.09626791  0.72109332  0.08250119    -0.02500
Br1163     Br  0.19141965  0.78318675  0.09824848    -0.03400
Br1164     Br  0.09331873  0.67229900  0.15580719     0.00600
C1165       C  0.28402085  0.90366336  0.13264108     0.02000
C1166       C  0.29106689  0.92425200  0.11633183     0.04800
C1167       C  0.29392871  0.90580452  0.09934253    -0.11300
C1168       C  0.29141749  0.86626629  0.09845232     0.24100
C1169       C  0.28775053  0.84542326  0.11494691    -0.11800
C1170       C  0.28299914  0.86405956  0.13185954     0.05500
C1171       C  0.28806160  0.84728880  0.08020119     0.27900
C1172       C  0.25222121  0.84998528  0.07028675    -0.12500
C1173       C  0.24682712  0.82937487  0.05407580     0.06000
C1174       C  0.27614275  0.80408585  0.04812814    -0.08500
C1175       C  0.31306993  0.80374943  0.05705200     0.06800
C1176       C  0.31924135  0.82554136  0.07290208    -0.12800
Br1177     Br  0.28818407  0.79125266  0.11442329    -0.04900
Br1178     Br  0.29768216  0.97802674  0.11737940     0.00700
Br1179     Br  0.19694918  0.83140268  0.04121661     0.01200
Br1180     Br  0.36957743  0.82296603  0.08511064    -0.03200
Br1181     Br  0.27171149  0.83551162  0.15370265     0.01300
Br1182     Br  0.30295594  0.93460349  0.07728186    -0.02500
Br1183     Br  0.20862179  0.87857154  0.07997097    -0.03400
Br1184     Br  0.35352572  0.76985010  0.04866251     0.00600
C1185       C  0.30640262  0.74915532  0.95068959     0.02000
C1186       C  0.34348662  0.73630443  0.94476158     0.04800
C1187       C  0.35633783  0.74430067  0.92685604    -0.11300
C1188       C  0.33252374  0.76598379  0.91483272     0.24100
C1189       C  0.29606828  0.78008213  0.92102982    -0.11800
C1190       C  0.28351177  0.77232744  0.93899904     0.05500
C1191       C  0.34563594  0.77308984  0.89564481     0.27900
C1192       C  0.37513267  0.79997262  0.89202411    -0.12500
C1193       C  0.38900878  0.80521778  0.87405800     0.06000
C1194       C  0.37946968  0.77882059  0.86048268    -0.08500
C1195       C  0.34886146  0.75288832  0.86379598     0.06800
C1196       C  0.33095633  0.75103119  0.88114888    -0.12800
Br1197     Br  0.26113716  0.80631860  0.90434612    -0.04900
Br1198     Br  0.37481713  0.70477633  0.96081994     0.00700
Br1199     Br  0.42677044  0.84395210  0.86855741     0.01200
Br1200     Br  0.28939509  0.71530704  0.88554043    -0.03200
Br1201     Br  0.23302257  0.79051439  0.94716324     0.01300
Br1202     Br  0.40470801  0.72229263  0.91816491    -0.02500
Br1203     Br  0.40220150  0.82376884  0.91207246    -0.03400
Br1204     Br  0.33418545  0.71739794  0.84515194     0.00600
C1205       C  0.20990796  0.57036280  0.86925695     0.02000
C1206       C  0.17671020  0.56429150  0.88041391     0.04800
C1207       C  0.17693673  0.57626976  0.89876144    -0.11300
C1208       C  0.20965911  0.59570999  0.90584591     0.24100
C1209       C  0.24315676  0.60123057  0.89485492    -0.11800
C1210       C  0.24314297  0.58898021  0.87658080     0.05500
C1211       C  0.20850252  0.61149016  0.92463056     0.27900
C1212       C  0.19462845  0.64836528  0.92715533    -0.12500
C1213       C  0.19366639  0.66346532  0.94480148     0.06000
C1214       C  0.21702049  0.64700949  0.95874286    -0.08500
C1215       C  0.23026412  0.60973642  0.95652716     0.06800
C1216       C  0.22335510  0.59107113  0.93982632    -0.12800
Br1217     Br  0.29049357  0.62178729  0.90556894    -0.04900
Br1218     Br  0.13382329  0.53451649  0.87113533     0.00700
Br1219     Br  0.16738258  0.71056247  0.94915533     0.01200
Br1220     Br  0.23774704  0.53912149  0.93718019    -0.03200
Br1221     Br  0.29025063  0.59409933  0.86206682     0.01300
Br1222     Br  0.13555573  0.56126378  0.91512971    -0.02500
Br1223     Br  0.18577036  0.68112130  0.90636547    -0.03400
Br1224     Br  0.26211378  0.58638157  0.97532038     0.00600
C1225       C  0.51902766  0.65000521  0.86256546     0.02000
C1226       C  0.05182898  0.65432458  0.87426851     0.04800
C1227       C  0.05116832  0.63867551  0.89200950    -0.11300
C1228       C  0.51831357  0.61804116  0.89799387     0.24100
C1229       C  0.48533668  0.61422840  0.88640995    -0.11800
C1230       C  0.48630404  0.62880056  0.86850414     0.05500
C1231       C  0.51953731  0.59785812  0.91585882     0.27900
C1232       C  0.53190718  0.56011474  0.91635075    -0.12500
C1233       C  0.53210732  0.54004495  0.93293362     0.06000
C1234       C  0.51435434  0.55561540  0.94856750    -0.08500
C1235       C  0.00293083  0.59384414  0.94826867     0.06800
C1236       C  0.00695257  0.61531361  0.93207586    -0.12800
Br1237     Br  0.43718354  0.59353410  0.89597260    -0.04900
Br1238     Br  0.09552107  0.68511674  0.86662203     0.00700
Br1239     Br  0.55223630  0.48928952  0.93378982     0.01200
Br1240     Br  0.99192606  0.66752857  0.93158194    -0.03200
Br1241     Br  0.44151744  0.62218770  0.85242776     0.01300
Br1242     Br  0.09221368  0.64979705  0.90920754    -0.02500
Br1243     Br  0.54344995  0.53437289  0.89389397    -0.03400
Br1244     Br  0.97749621  0.61537511  0.96925632     0.00600
C1245       C  0.34399878  0.93775670  0.86192657     0.02000
C1246       C  0.33549069  0.90836244  0.87425330     0.04800
C1247       C  0.35059350  0.90973724  0.89220276    -0.11300
C1248       C  0.38047514  0.93563772  0.89665423     0.24100
C1249       C  0.39002470  0.46158232  0.88407321    -0.11800
C1250       C  0.37057367  0.46416610  0.86705096     0.05500
C1251       C  0.39389967  0.93989092  0.91595340     0.27900
C1252       C  0.37154874  0.96208540  0.92804328    -0.12500
C1253       C  0.38608647  0.96991433  0.94568606     0.06000
C1254       C  0.42002954  0.45552723  0.95180872    -0.08500
C1255       C  0.44010566  0.43004534  0.94047479     0.06800
C1256       C  0.42659703  0.42371726  0.92254879    -0.12800
Br1257     Br  0.43135132  0.49641826  0.89009905    -0.04900
Br1258     Br  0.29832813  0.87012313  0.86725560     0.00700
Br1259     Br  0.35814479  0.00383774  0.96148776     0.01200
Br1260     Br  0.46125480  0.39991286  0.90533061    -0.03200
Br1261     Br  0.38109612  0.50626119  0.85100420     0.01300
Br1262     Br  0.32427235  0.88249665  0.91137293    -0.02500
Br1263     Br  0.32394350  0.98627881  0.91942608    -0.03400
Br1264     Br  0.48937325  0.40842750  0.94877236     0.00600
C1265       C  0.15811437  0.04261195  0.13165900     0.02000
C1266       C  0.11733540  0.03674865  0.12948037     0.04800
C1267       C  0.09965915  0.04143975  0.11216865    -0.11300
C1268       C  0.12300662  0.05100892  0.09689797     0.24100
C1269       C  0.16469667  0.55906306  0.09859945    -0.11800
C1270       C  0.18210101  0.55582840  0.11607159     0.05500
C1271       C  0.10724407  0.04455319  0.07823670     0.27900
C1272       C  0.11589298  0.01012475  0.06967463    -0.12500
C1273       C  0.09575025  0.00002727  0.05365381     0.06000
C1274       C  0.06570793  0.02350382  0.04657192    -0.08500
C1275       C  0.05922715  0.05917004  0.05425042     0.06800
C1276       C  0.08035942  0.06991252  0.06997960    -0.12800
Br1277     Br  0.19581324  0.57436519  0.07784495    -0.04900
Br1278     Br  0.08704942  0.01731410  0.14969279     0.00700
Br1279     Br  0.10378681  0.45087070  0.04214363     0.01200
Br1280     Br  0.06940353  0.11753165  0.08120711    -0.03200
Br1281     Br  0.23739221  0.56636796  0.11936629     0.01300
Br1282     Br  0.04405284  0.03177469  0.10914417    -0.02500
Br1283     Br  0.15332466  0.47420910  0.07971652    -0.03400
Br1284     Br  0.01758785  0.09093498  0.04468703     0.00600
C1285       C  0.98769348  0.87827532  0.14289781     0.02000
C1286       C  0.44800193  0.87696114  0.13724413     0.04800
C1287       C  0.43650284  0.89501888  0.12094914    -0.11300
C1288       C  0.96480260  0.91079082  0.10924950     0.24100
C1289       C  0.00425621  0.91357574  0.11528065    -0.11800
C1290       C  0.01534945  0.89859368  0.13240979     0.05500
C1291       C  0.95463656  0.91955813  0.08983317     0.27900
C1292       C  0.96622097  0.89430141  0.07604865    -0.12500
C1293       C  0.96590572  0.90591530  0.05758375     0.06000
C1294       C  0.95334622  0.94250541  0.05284325    -0.08500
C1295       C  0.93453845  0.96454873  0.06626622     0.06800
C1296       C  0.93684684  0.95399785  0.08486345    -0.12800
Br1297     Br  0.04372664  0.93472167  0.09937856    -0.04900
Br1298     Br  0.41060929  0.84603782  0.15030278    -0.00100
Br1299     Br  0.48873619  0.87431648  0.03917729     0.01200
Br1300     Br  0.92057138  0.98874201  0.10352569    -0.03200
Br1301     Br  0.06918996  0.90300250  0.14086047     0.01300
Br1302     Br  0.38232059  0.89700468  0.11442905    -0.02500
Br1303     Br  0.48698448  0.84551731  0.08274145    -0.03400
Br1304     Br  0.91302439  0.01284558  0.05935757     0.00600
C1305       C  0.42897769  0.78516066  0.54283962     0.02000
C1306       C  0.39730153  0.76162564  0.54768821     0.04800
C1307       C  0.37641696  0.76813019  0.56393679    -0.11300
C1308       C  0.38549274  0.79975641  0.57476834     0.24100
C1309       C  0.41204990  0.82689498  0.56792251    -0.11800
C1310       C  0.43480228  0.81895181  0.55236365     0.05500
C1311       C  0.37002389  0.80177485  0.59384744     0.27900
C1312       C  0.32964634  0.80862437  0.59684344    -0.12500
C1313       C  0.31314336  0.80172847  0.61420508     0.06000
C1314       C  0.33692763  0.78825294  0.62878441    -0.08500
C1315       C  0.37791473  0.78451803  0.62621235     0.06800
C1316       C  0.39454888  0.79176288  0.60886975    -0.12800
Br1317     Br  0.41904977  0.87399576  0.58017502    -0.04900
Br1318     Br  0.38716036  0.71716421  0.53346038     0.00700
Br1319     Br  0.25753101  0.80929636  0.61787146     0.01200
Br1320     Br  0.45078793  0.78678993  0.60564291    -0.03200
Br1321     Br  0.47823568  0.85123676  0.54585164     0.01300
Br1322     Br  0.33821959  0.73156435  0.57211886    -0.02500
Br1323     Br  0.29720093  0.82722903  0.57697064    -0.03400
Br1324     Br  0.41054339  0.76637847  0.64610902     0.00600
C1325       C  0.09534177  0.72414494  0.45552394     0.02000
C1326       C  0.07399506  0.69786397  0.44503997     0.04800
C1327       C  0.08419537  0.69130638  0.42668158    -0.11300
C1328       C  0.11926640  0.70644844  0.41953075     0.24100
C1329       C  0.14336245  0.72895383  0.43077356    -0.11800
C1330       C  0.13136810  0.73794043  0.44866313     0.05500
C1331       C  0.13046926  0.70041929  0.40005314     0.27900
C1332       C  0.15962848  0.67371392  0.39563580    -0.12500
C1333       C  0.17295876  0.67063937  0.37748417     0.06000
C1334       C  0.16388956  0.69926408  0.36471525    -0.08500
C1335       C  0.13480296  0.72619551  0.36910628     0.06800
C1336       C  0.11627009  0.72504042  0.38630987    -0.12800
Br1337     Br  0.18988859  0.75160091  0.42054594    -0.04900
Br1338     Br  0.02729598  0.67514119  0.45512205     0.00700
Br1339     Br  0.20890464  0.63121971  0.37066951     0.01200
Br1340     Br  0.07449092  0.75989498  0.39176217    -0.03200
Br1341     Br  0.16109408  0.77336013  0.46297704     0.01300
Br1342     Br  0.04649032  0.66779480  0.41060875    -0.02500
Br1343     Br  0.18707355  0.64733412  0.41500883    -0.03400
Br1344     Br  0.12455726  0.76798977  0.35275693     0.00600
C1345       C  0.00294356  0.82437339  0.44943295     0.02000
C1346       C  0.51338966  0.86268183  0.44892489     0.04800
C1347       C  0.50755942  0.88390639  0.43275394    -0.11300
C1348       C  0.99286297  0.86642414  0.41686490     0.24100
C1349       C  0.98152481  0.82844386  0.41755364    -0.11800
C1350       C  0.98507245  0.80796150  0.43396145     0.05500
C1351       C  0.99030149  0.88701873  0.39914155     0.27900
C1352       C  0.45615861  0.90767871  0.39458701    -0.12500
C1353       C  0.45183670  0.92378518  0.37701365     0.06000
C1354       C  0.98255674  0.92066765  0.36422560    -0.08500
C1355       C  0.01686292  0.89999844  0.36885832     0.06800
C1356       C  0.02090706  0.88367488  0.38632863    -0.12800
Br1357     Br  0.96492865  0.80344997  0.39548870    -0.04900
Br1358     Br  0.53870554  0.88498582  0.46986841     0.00700
Br1359     Br  0.40558870  0.95283809  0.37081409     0.01200
Br1360     Br  0.06982264  0.85979363  0.39337443    -0.03200
Br1361     Br  0.96858863  0.75614326  0.43486739     0.01300
Br1362     Br  0.52200108  0.93615710  0.43195196    -0.02500
Br1363     Br  0.41790362  0.91721984  0.41328703    -0.03400
Br1364     Br  0.05979817  0.89674978  0.35166451     0.00600
C1365       C  0.12313188  0.04300718  0.35817181     0.02000
C1366       C  0.11457551  0.57126221  0.37231040     0.04800
C1367       C  0.13064527  0.56586699  0.38987009    -0.11300
C1368       C  0.16220961  0.03986072  0.39207108     0.24100
C1369       C  0.17467685  0.01636632  0.37776292    -0.11800
C1370       C  0.15361580  0.01648556  0.36111244     0.05500
C1371       C  0.17326715  0.03099039  0.41128642     0.27900
C1372       C  0.20467456  0.54237003  0.42014457    -0.12500
C1373       C  0.21298447  0.53509703  0.43869204     0.06000
C1374       C  0.19189412  0.01455753  0.44809705    -0.08500
C1375       C  0.15696654  0.00047686  0.44026699     0.06800
C1376       C  0.14772766  0.00854203  0.42188718    -0.12800
Br1377     Br  0.21717497  0.98114299  0.38168840    -0.04900
Br1378     Br  0.08024231  0.61333577  0.36715427     0.00700
Br1379     Br  0.25898610  0.55674634  0.45009120     0.01200
Br1380     Br  0.10199433  0.98607636  0.41061174    -0.03200
Br1381     Br  0.16354614  0.97779880  0.34331817     0.01300
Br1382     Br  0.10716223  0.59092894  0.41030752    -0.02500
Br1383     Br  0.24319170  0.56783821  0.40535246    -0.03400
Br1384     Br  0.12389059  0.96741246  0.45441987     0.00600
C1385       C  0.29198003  0.83031353  0.36950891     0.02000
C1386       C  0.32535182  0.82481824  0.38082873     0.04800
C1387       C  0.32518672  0.83778943  0.39895376    -0.11300
C1388       C  0.29227121  0.85739946  0.40561193     0.24100
C1389       C  0.25900500  0.86332543  0.39429654    -0.11800
C1390       C  0.25880064  0.84971244  0.37629714     0.05500
C1391       C  0.29404013  0.87517487  0.42382809     0.27900
C1392       C  0.27953116  0.85670938  0.43952586    -0.12500
C1393       C  0.27305616  0.87722090  0.45562934     0.06000
C1394       C  0.28476156  0.91509816  0.45647351    -0.08500
C1395       C  0.30685936  0.93061354  0.44196444     0.06800
C1396       C  0.30789575  0.91220198  0.42511720    -0.12800
Br1397     Br  0.21313997  0.88868477  0.40383152    -0.04900
Br1398     Br  0.36903326  0.79537205  0.37208221     0.00700
Br1399     Br  0.24316587  0.85537501  0.47536962     0.01200
Br1400     Br  0.32144285  0.93983221  0.40322192    -0.03200
Br1401     Br  0.21183108  0.85492238  0.36138280     0.01300
Br1402     Br  0.36845979  0.82635119  0.41526785    -0.02500
Br1403     Br  0.26552214  0.80460348  0.43848302    -0.03400
Br1404     Br  0.32881360  0.98024963  0.44416524     0.00600
C1405       C  0.20608978  0.65356505  0.63099394     0.02000
C1406       C  0.19594795  0.67595354  0.61561786     0.04800
C1407       C  0.19056097  0.65939958  0.59835648    -0.11300
C1408       C  0.19365253  0.62010755  0.59650960     0.24100
C1409       C  0.19948426  0.59740168  0.61226490    -0.11800
C1410       C  0.20646342  0.61414067  0.62940361     0.05500
C1411       C  0.19612075  0.60311027  0.57800156     0.27900
C1412       C  0.16513316  0.58097346  0.57087457    -0.12500
C1413       C  0.17157730  0.55852261  0.55538818     0.06000
C1414       C  0.20855353  0.55879976  0.54677604    -0.08500
C1415       C  0.23758442  0.58459539  0.55244149     0.06800
C1416       C  0.23187967  0.60594284  0.56829070    -0.12800
Br1417     Br  0.19944240  0.54334474  0.61030087    -0.04900
Br1418     Br  0.18895878  0.72939539  0.61838800     0.00700
Br1419     Br  0.13189669  0.52339749  0.54744009     0.01200
Br1420     Br  0.27527173  0.63489683  0.57802696    -0.03200
Br1421     Br  0.21927996  0.58326989  0.65039086     0.01300
Br1422     Br  0.17808004  0.69030553  0.57728914    -0.02500
Br1423     Br  0.11536527  0.57780870  0.58328222    -0.03400
Br1424     Br  0.28794548  0.58548802  0.54019322     0.00600
C1425       C  0.49912009  0.62866952  0.64375707     0.02000
C1426       C  0.03857033  0.62767094  0.63792631     0.04800
C1427       C  0.04921734  0.64554244  0.62149579    -0.11300
C1428       C  0.52042165  0.66181542  0.60995243     0.24100
C1429       C  0.48121194  0.66449209  0.61621089    -0.11800
C1430       C  0.47078807  0.64871801  0.63325452     0.05500
C1431       C  0.53054614  0.67378141  0.59086849     0.27900
C1432       C  0.54938709  0.70841207  0.58750704    -0.12500
C1433       C  0.55411387  0.72152990  0.56938823     0.06000
C1434       C  0.53746855  0.70161273  0.55457550    -0.08500
C1435       C  0.02232289  0.66532864  0.55781508     0.06800
C1436       C  0.01915849  0.65128930  0.57586737    -0.12800
Br1437     Br  0.44139498  0.68813254  0.60105088    -0.04900
Br1438     Br  0.07717240  0.59783602  0.65117671     0.00700
Br1439     Br  0.57735455  0.77008386  0.56486743     0.01200
Br1440     Br  0.99565466  0.60269908  0.58018537    -0.03200
Br1441     Br  0.41701452  0.65213946  0.64166861     0.01300
Br1442     Br  0.10332250  0.64718892  0.61487178    -0.02500
Br1443     Br  0.56429607  0.73999240  0.60773788    -0.03400
Br1444     Br  0.00047664  0.63751062  0.53764862     0.00600
C1445       C  0.29039408  0.45042577  0.55658911     0.02000
C1446       C  0.33018864  0.96864356  0.55950351     0.04800
C1447       C  0.34629448  0.96715033  0.57726861    -0.11300
C1448       C  0.32243915  0.44986270  0.59205330     0.24100
C1449       C  0.28634496  0.43162921  0.58863410    -0.11800
C1450       C  0.27081273  0.43112405  0.57076857     0.05500
C1451       C  0.33290494  0.46176540  0.61088180     0.27900
C1452       C  0.35126086  0.93948410  0.62326552    -0.12500
C1453       C  0.36579868  0.95250738  0.64006084     0.06000
C1454       C  0.36299374  0.48829103  0.64428302    -0.08500
C1455       C  0.34066040  0.51245186  0.63285218     0.06800
C1456       C  0.32640918  0.49944992  0.61598222    -0.12800
Br1457     Br  0.25552009  0.41238704  0.60866752    -0.04900
Br1458     Br  0.35651098  0.99729221  0.54069690     0.00700
Br1459     Br  0.39590192  0.91901898  0.65578475     0.01200
Br1460     Br  0.30083092  0.53407560  0.59922437    -0.03200
Br1461     Br  0.21891194  0.41093398  0.56621854     0.01300
Br1462     Br  0.39692075  0.98979692  0.58224277    -0.02500
Br1463     Br  0.35873002  0.88794397  0.61700509    -0.03400
Br1464     Br  0.33199083  0.56404347  0.63983802     0.00600
O1465       O  0.89529679  0.42907465  0.27647518    -0.57200
C1466       C  0.82660450  0.33425186  0.27379533     0.75500
O1467       O  0.83815222  0.39771181  0.22279828    -0.58300
C1468       C  0.92924036  0.43882157  0.27092902     0.75400
C1469       C  0.93881035  0.34170058  0.23177188     0.77800
Cd1470     Cd  0.87782499  0.38522677  0.25104154     1.37500
O1471       O  0.85864291  0.34859240  0.27928330    -0.57200
O1472       O  0.93884508  0.34232418  0.24905763    -0.56000
C1473       C  0.82761747  0.43125799  0.22578553     0.77800
O1474       O  0.90918832  0.35702344  0.22415176    -0.58300
O1475       O  0.81786628  0.34198700  0.25736627    -0.56800
O1476       O  0.93833056  0.42725064  0.25518195    -0.56800
O1477       O  0.83944898  0.44441276  0.24092280    -0.56000
N1478       N  0.93913594  0.05273762  0.66334046    -0.36000
N1479       N  0.91301259  0.49707067  0.68959050    -0.56500
N1480       N  0.96770649  0.02601316  0.71692295    -0.36000
N1481       N  0.49631453  0.07929153  0.68894690    -0.56500
C1482       C  0.91997237  0.02774554  0.65285306     0.27600
C1483       C  0.96454583  0.07092215  0.65236998     0.27600
C1484       C  0.95845309  0.49044328  0.72453634     0.27600
C1485       C  0.50280384  0.03673142  0.72437526     0.27600
C1486       C  0.88353122  0.49556945  0.67709567     0.36200
C1487       C  0.89957508  0.47982883  0.70475147     0.36200
C1488       C  0.49751507  0.10717299  0.67620585     0.36200
C1489       C  0.51418818  0.09260384  0.70410282     0.36200
C1490       C  0.93376557  0.02954188  0.63503204    -0.21200
C1491       C  0.96199301  0.05713871  0.63470952    -0.21200
C1492       C  0.98633065  0.48063235  0.73770499    -0.21200
C1493       C  0.51399910  0.00988794  0.73729106    -0.21200
C1494       C  0.85075000  0.47814021  0.68434178    -0.22300
C1495       C  0.86076855  0.46834421  0.70196747    -0.22300
C1496       C  0.51561619  0.13863739  0.68327085    -0.22300
C1497       C  0.52603332  0.12955819  0.70098059    -0.22300
C1498       C  0.88734964  0.00690654  0.65877133    -0.17600
C1499       C  0.98636681  0.10234626  0.65775582    -0.17600
C1500       C  0.52411520  0.07035684  0.71974089    -0.17600
C1501       C  0.92386448  0.46931497  0.71976973    -0.17600
H1502       H  0.92361696  0.01358252  0.62338166     0.15300
H1503       H  0.97799830  0.06667555  0.62278397     0.15300
H1504       H  0.98647930  0.45566761  0.74624676     0.15300
H1505       H  0.54039510  0.01001175  0.74568080     0.15300
H1506       H  0.82329542  0.47178023  0.67740596     0.13600
H1507       H  0.84201201  0.45329468  0.71143304     0.13500
H1508       H  0.52165307  0.16486045  0.67623833     0.13600
H1509       H  0.54126040  0.14799226  0.71035799     0.13500
H1510       H  0.93125958  0.06075593  0.67652146     0.26800
H1511       H  0.95070222  0.04228575  0.70798271     0.26800
C1512       C  0.76722061  0.97326340  0.54230226    -0.10200
C1513       C  0.74502763  0.00298475  0.54900284    -0.04100
C1514       C  0.72319758  0.02656329  0.53754752    -0.10200
C1515       C  0.72042219  0.01868975  0.51872657     0.10800
C1516       C  0.74195734  0.98772473  0.51166037    -0.02000
C1517       C  0.76432029  0.46171957  0.52394790     0.10600
C1518       C  0.78703384  0.43255668  0.51652588    -0.12000
C1519       C  0.78597150  0.42531068  0.49780132    -0.12000
C1520       C  0.76059918  0.44569796  0.48613791     0.10600
C1521       C  0.73733236  0.47537727  0.49339530    -0.02000
C1522       C  0.69722922  0.04089285  0.50685082    -0.12100
C1523       C  0.69415520  0.03215738  0.48831597    -0.12100
C1524       C  0.71479028  0.00142572  0.48111080     0.10800
C1525       C  0.70905847  0.48734756  0.46312305    -0.10200
C1526       C  0.72996515  0.45671987  0.45658773    -0.04100
C1527       C  0.75757506  0.43756065  0.46732507    -0.10200
H1528       H  0.80615056  0.41550153  0.52515052     0.08000
H1529       H  0.80445990  0.40303341  0.49256530     0.08000
H1530       H  0.68079211  0.06475487  0.51191812     0.08200
H1531       H  0.67538652  0.04947222  0.47964707     0.08200
H1532       H  0.74670294  0.00940695  0.56350546     0.04600
H1533       H  0.72736644  0.44979452  0.44216543     0.04600
N1534       N  0.51546455  0.50187142  0.28593018    -0.36000
N1535       N  0.97528309  0.46276468  0.31598618    -0.56500
N1536       N  0.53035513  0.49750098  0.34120504    -0.36000
N1537       N  0.57048027  0.03685425  0.31265165    -0.56500
C1538       C  0.98271640  0.48871385  0.27719541     0.27600
C1539       C  0.53210380  0.03011838  0.27565666     0.27600
C1540       C  0.50342082  0.48243469  0.35252184     0.27600
C1541       C  0.55277583  0.52093233  0.35127771     0.27600
C1542       C  0.96055122  0.44389647  0.30152985     0.36200
C1543       C  0.97125935  0.43984185  0.33074320     0.36200
C1544       C  0.58732906  0.04735998  0.29681444     0.36200
C1545       C  0.59828965  0.04124938  0.32580146     0.36200
C1546       C  0.97765705  0.50904637  0.26108084    -0.21200
C1547       C  0.50876609  0.03475255  0.26014891    -0.21200
C1548       C  0.50779108  0.49727337  0.36988147    -0.21200
C1549       C  0.53911455  0.52137473  0.36914910    -0.21200
C1550       C  0.94651104  0.40906203  0.30730379    -0.22300
C1551       C  0.95343332  0.40653339  0.32581768    -0.22300
C1552       C  0.62609166  0.05852641  0.30001267    -0.22300
C1553       C  0.63284375  0.05495893  0.31843236    -0.22300
C1554       C  0.95815555  0.45831429  0.28338111    -0.17600
C1555       C  0.56689571  0.05135418  0.27997795    -0.17600
C1556       C  0.58848374  0.53678888  0.34517405    -0.17600
C1557       C  0.48258912  0.44942172  0.34865519    -0.17600
H1558       H  0.95445727  0.50549544  0.25101530     0.15300
H1559       H  0.51277807  0.05517653  0.24928268     0.15300
H1560       H  0.49206379  0.48941320  0.38215742     0.15300
H1561       H  0.55122711  0.53574637  0.38083605     0.15300
H1562       H  0.93328479  0.38731224  0.29903479     0.13600
H1563       H  0.94612646  0.38302243  0.33463868     0.13500
H1564       H  0.64724940  0.06870124  0.29012588     0.13600
H1565       H  0.65984601  0.06200534  0.32558512     0.13500
H1566       H  0.52846627  0.48988827  0.29749513     0.26800
H1567       H  0.53806661  0.48639864  0.32859365     0.26800
C1568       C  0.96280191  0.26857657  0.53380471    -0.10200
C1569       C  0.98412645  0.24440992  0.54515434    -0.04100
C1570       C  0.01844181  0.22643223  0.53954955    -0.10200
C1571       C  0.53174367  0.23181909  0.52129866     0.10800
C1572       C  0.01086650  0.25740188  0.50959598    -0.02000
C1573       C  0.97628803  0.27596903  0.51590331     0.10600
C1574       C  0.95623866  0.30114907  0.50421171    -0.12000
C1575       C  0.97043683  0.30907802  0.48673076    -0.12000
C1576       C  0.00464830  0.29144372  0.48024069     0.10600
C1577       C  0.52454179  0.26456266  0.49156120    -0.02000
C1578       C  0.56461811  0.21253798  0.51434262    -0.12100
C1579       C  0.57660595  0.21788820  0.49615013    -0.12100
C1580       C  0.55733190  0.24409550  0.48466681     0.10800
C1581       C  0.56970479  0.25093740  0.46643493    -0.10200
C1582       C  0.55239334  0.28012361  0.45640476    -0.04100
C1583       C  0.51949394  0.29945739  0.46260358    -0.10200
H1584       H  0.92967359  0.31529208  0.50864773     0.08000
H1585       H  0.95441250  0.32914026  0.47828788     0.08000
H1586       H  0.58080156  0.19276176  0.52288134     0.08200
H1587       H  0.60174959  0.20216851  0.49122053     0.08200
H1588       H  0.97383480  0.23980299  0.55905571     0.04600
H1589       H  0.56244027  0.28552065  0.44253305     0.04600
N1590       N  0.77058261  0.22263128  0.65257227    -0.36000
N1591       N  0.79996027  0.27693556  0.67763664    -0.56500
N1592       N  0.74429031  0.24764731  0.70568209    -0.36000
N1593       N  0.71774834  0.19076948  0.67943432    -0.56500
C1594       C  0.80249770  0.23529233  0.64352435     0.27600
C1595       C  0.75971535  0.19028203  0.64458082     0.27600
C1596       C  0.76961791  0.26864147  0.71597407     0.27600
C1597       C  0.72546152  0.22262815  0.71690620     0.27600
C1598       C  0.81300237  0.29218462  0.66169399     0.36200
C1599       C  0.80166592  0.30425154  0.69035671     0.36200
C1600       C  0.70204424  0.17665571  0.66381535     0.36200
C1601       C  0.69011763  0.18688464  0.69259163     0.36200
C1602       C  0.81289178  0.21009933  0.62997797    -0.21200
C1603       C  0.78581283  0.18149537  0.63068011    -0.21200
C1604       C  0.76647871  0.25686536  0.73406680    -0.21200
C1605       C  0.73883715  0.22817977  0.73464538    -0.21200
C1606       C  0.82305396  0.32937281  0.66420613    -0.22300
C1607       C  0.81587269  0.33710560  0.68233451    -0.22300
C1608       C  0.66424250  0.16388456  0.66695022    -0.22300
C1609       C  0.65666449  0.17015242  0.68517961    -0.22300
C1610       C  0.81768988  0.27178491  0.64529140    -0.17600
C1611       C  0.72276490  0.17329881  0.64715337    -0.17600
C1612       C  0.69613706  0.19561222  0.71140486    -0.17600
C1613       C  0.79447011  0.29864217  0.70937473    -0.17600
H1614       H  0.83614324  0.21307042  0.61998856     0.15300
H1615       H  0.78398790  0.15817084  0.62129130     0.15300
H1616       H  0.78270428  0.26730763  0.74573749     0.15300
H1617       H  0.73020969  0.21285443  0.74680150     0.15300
H1618       H  0.83459614  0.34871291  0.65410869     0.13600
H1619       H  0.82058591  0.36397976  0.68882042     0.13500
H1620       H  0.64450064  0.15107303  0.65716663     0.13600
H1621       H  0.62941558  0.16342162  0.69209240     0.13500
H1622       H  0.75282425  0.23857372  0.66114259     0.26800
H1623       H  0.73811686  0.25209458  0.69187123     0.26800
N1624       N  0.75016251  0.26052348  0.28958624    -0.36000
N1625       N  0.70815940  0.21326342  0.31711505    -0.56500
N1626       N  0.74419304  0.25647554  0.34503292    -0.36000
N1627       N  0.78860194  0.30156009  0.31930121    -0.56500
C1628       C  0.73685193  0.23158665  0.27908997     0.27600
C1629       C  0.77909256  0.27908875  0.28025972     0.27600
C1630       C  0.72775569  0.22858317  0.35494911     0.27600
C1631       C  0.77060219  0.27340903  0.35600170     0.27600
C1632       C  0.68924523  0.20363981  0.30157228     0.36200
C1633       C  0.68356777  0.20472390  0.33112128     0.36200
C1634       C  0.79892020  0.32362467  0.30499976     0.36200
C1635       C  0.79268398  0.32263955  0.33456405     0.36200
C1636       C  0.75735888  0.23208624  0.26272091    -0.21200
C1637       C  0.78379518  0.26180784  0.26345028    -0.21200
C1638       C  0.74490298  0.22714733  0.37222619    -0.21200
C1639       C  0.77207097  0.25525920  0.37284308    -0.21200
C1640       C  0.65253371  0.18851503  0.30585396    -0.22300
C1641       C  0.64907505  0.18913879  0.32458059    -0.22300
C1642       C  0.80999321  0.35886355  0.31135360    -0.22300
C1643       C  0.80597482  0.35817269  0.33008540    -0.22300
C1644       C  0.70570201  0.20586017  0.28374022    -0.17600
C1645       C  0.80045365  0.31162415  0.28648316    -0.17600
C1646       C  0.78648014  0.30906340  0.35249893    -0.17600
C1647       C  0.69307591  0.20983454  0.34974886    -0.17600
H1648       H  0.75384992  0.21294788  0.25139824     0.15300
H1649       H  0.80434457  0.26950509  0.25280618     0.15300
H1650       H  0.73755187  0.20948922  0.38375475     0.15300
H1651       H  0.78876488  0.26289105  0.38488708     0.15300
H1652       H  0.63022299  0.17838358  0.29647782     0.13600
H1653       H  0.62418388  0.17925532  0.33245962     0.13500
H1654       H  0.81951250  0.38286379  0.30336739     0.13600
H1655       H  0.81237225  0.38099997  0.33934173     0.13500
H1656       H  0.73780267  0.26895704  0.30186843     0.26800
H1657       H  0.73237666  0.26816691  0.33310563     0.26800
C1658       C  0.47592216  0.46363607  0.03917887    -0.10200
C1659       C  0.50794987  0.48273542  0.04662970    -0.04100
C1660       C  0.53228548  0.50555849  0.03612633    -0.10200
C1661       C  0.52522035  0.01121195  0.01753412     0.10800
C1662       C  0.49194644  0.49112227  0.00932371    -0.02000
C1663       C  0.96835246  0.46656077  0.02016069     0.10600
C1664       C  0.93830641  0.44578166  0.01166194    -0.12000
C1665       C  0.93139411  0.44911656  0.99282851    -0.12000
C1666       C  0.95298192  0.47473264  0.98214902     0.10600
C1667       C  0.98518216  0.99650366  0.99045479    -0.02000
C1668       C  0.54780292  0.03601722  0.00685545    -0.12100
C1669       C  0.53866997  0.04227596  0.98845802    -0.12100
C1670       C  0.50736451  0.02313440  0.98006805     0.10800
C1671       C  0.99735299  0.02945092  0.96149907    -0.10200
C1672       C  0.96731450  0.00848084  0.95356057    -0.04100
C1673       C  0.94783636  0.98006718  0.96301896    -0.10200
H1674       H  0.92027571  0.42655961  0.01952923     0.08000
H1675       H  0.90817761  0.43241128  0.98674403     0.08000
H1676       H  0.57231044  0.05124185  0.01277432     0.08200
H1677       H  0.55635132  0.06214243  0.98079935     0.08200
H1678       H  0.51411377  0.47985507  0.06118401     0.04600
H1679       H  0.96032039  0.01299558  0.93917263     0.04600
N1680       N  0.74920948  0.99993094  0.78897774    -0.36000
N1681       N  0.79383965  0.45309153  0.81574345    -0.56500
N1682       N  0.76099771  0.99486220  0.84457309    -0.36000
N1683       N  0.71196782  0.03940877  0.81953461    -0.56500
C1684       C  0.76309601  0.47239473  0.77799848     0.27600
C1685       C  0.71941814  0.01857012  0.78004908     0.27600
C1686       C  0.78015563  0.96771181  0.85412220     0.27600
C1687       C  0.73578694  0.01137888  0.85621271     0.27600
C1688       C  0.81183253  0.44372728  0.80001652     0.36200
C1689       C  0.81926934  0.44391856  0.82947267     0.36200
C1690       C  0.70050381  0.06202457  0.80544646     0.36200
C1691       C  0.70880639  0.05989153  0.83509120     0.36200
C1692       C  0.74193811  0.47340515  0.76172369    -0.21200
C1693       C  0.71528714  0.50298863  0.76281876    -0.21200
C1694       C  0.76617882  0.96644096  0.87191382    -0.21200
C1695       C  0.73806310  0.99378667  0.87319818    -0.21200
C1696       C  0.84873267  0.42818467  0.80390776    -0.22300
C1697       C  0.85328648  0.42820418  0.82257026    -0.22300
C1698       C  0.68979678  0.09698889  0.81230499    -0.22300
C1699       C  0.69485611  0.09547896  0.83100758    -0.22300
C1700       C  0.79439987  0.44636862  0.78233081    -0.17600
C1701       C  0.69817999  0.05096590  0.78666242    -0.17600
C1702       C  0.71735954  0.04626903  0.85296567    -0.17600
C1703       C  0.81123781  0.44854436  0.84820731    -0.17600
H1704       H  0.74509806  0.45462134  0.75024831     0.15300
H1705       H  0.69249727  0.00918614  0.75272492     0.15300
H1706       H  0.77610948  0.94914196  0.88322599     0.15300
H1707       H  0.72307454  0.00129736  0.88566729     0.15300
H1708       H  0.87045073  0.41814180  0.79430580     0.13600
H1709       H  0.87862990  0.41787160  0.83017573     0.13500
H1710       H  0.68028978  0.12162702  0.80472267     0.13600
H1711       H  0.68928582  0.11807992  0.84049180     0.13500
H1712       H  0.76223472  0.00811015  0.80120915     0.26800
H1713       H  0.77001149  0.00630549  0.83215948     0.26800
N1714       N  0.96294586  0.22509828  0.84120861    -0.36000
N1715       N  0.92898830  0.27405342  0.81426370    -0.56500
N1716       N  0.98123104  0.23961603  0.78646330    -0.36000
N1717       N  0.51752882  0.19284027  0.81519287    -0.56500
C1718       C  0.94225527  0.24863202  0.85196209     0.27600
C1719       C  0.98841818  0.20644431  0.85222680     0.27600
C1720       C  0.96619317  0.26944432  0.77687135     0.27600
C1721       C  0.51346458  0.22625103  0.77746416     0.27600
C1722       C  0.90194511  0.27842154  0.82770703     0.36200
C1723       C  0.91222112  0.28725051  0.79869489     0.36200
C1724       C  0.52170251  0.16768437  0.82907457     0.36200
C1725       C  0.53448077  0.17726882  0.80039525     0.36200
C1726       C  0.95533243  0.24506761  0.86994254    -0.21200
C1727       C  0.98455805  0.21869987  0.87006906    -0.21200
C1728       C  0.98903030  0.27471735  0.76135727    -0.21200
C1729       C  0.51855490  0.24758234  0.76171441    -0.21200
C1730       C  0.86799389  0.29482073  0.82080768    -0.22300
C1731       C  0.87418683  0.29995993  0.80241477    -0.22300
C1732       C  0.54162254  0.13609278  0.82323977    -0.22300
C1733       C  0.54988485  0.14214864  0.80506645    -0.22300
C1734       C  0.90856353  0.26903477  0.84626480    -0.17600
C1735       C  0.00988906  0.17437845  0.84720292    -0.17600
C1736       C  0.53766222  0.19482763  0.78295303    -0.17600
C1737       C  0.93181450  0.29107811  0.78158644    -0.17600
H1738       H  0.94443616  0.25858358  0.88205714     0.15300
H1739       H  0.99968559  0.20835470  0.88217572     0.15300
H1740       H  0.98507147  0.29597279  0.75084575     0.15300
H1741       H  0.54135092  0.24413869  0.75155688     0.15300
H1742       H  0.84155229  0.30215471  0.82822146     0.13600
H1743       H  0.85283931  0.31172586  0.79290181     0.13500
H1744       H  0.54977042  0.11158333  0.83128798     0.13600
H1745       H  0.56522176  0.12266885  0.79628486     0.13500
H1746       H  0.95535226  0.21724711  0.82797610     0.26800
H1747       H  0.96820837  0.22721799  0.79780656     0.26800
O1748       O  0.59672375  0.11115147  0.27361784    -0.57200
C1749       C  0.68757882  0.17996019  0.26984788     0.75500
O1750       O  0.65110797  0.09646046  0.21929795    -0.58300
C1751       C  0.58409073  0.08034655  0.26736871     0.75400
C1752       C  0.58952160  0.19459744  0.22983295     0.77800
Cd1753     Cd  0.63524206  0.13318453  0.24714433     1.37500
O1754       O  0.67680289  0.14699460  0.27427857    -0.57200
O1755       O  0.58803980  0.18998571  0.24695688    -0.56000
C1756       C  0.68499025  0.08394282  0.22358532     0.77800
O1757       O  0.60728109  0.16883882  0.22122173    -0.58300
O1758       O  0.67854223  0.19023175  0.25374319    -0.56800
O1759       O  0.59139443  0.07463332  0.25071694    -0.56800
O1760       O  0.69773386  0.09479715  0.23900356    -0.56000
N1761       N  0.72578191  0.47760168  0.15437757    -0.36000
N1762       N  0.70018190  0.03447065  0.17960848    -0.56500
N1763       N  0.75664433  0.50672293  0.20652623    -0.36000
N1764       N  0.77921755  0.44614589  0.18030604    -0.56500
C1765       C  0.69298593  0.49073858  0.14608644     0.27600
C1766       C  0.73421756  0.44428804  0.14664159     0.27600
C1767       C  0.73288790  0.02860362  0.21735234     0.27600
C1768       C  0.77534980  0.48126499  0.21762084     0.27600
C1769       C  0.68564265  0.04847077  0.16365614     0.36200
C1770       C  0.69911744  0.06275287  0.19181542     0.36200
C1771       C  0.79336965  0.43040561  0.16474715     0.36200
C1772       C  0.80790184  0.44323683  0.19316221     0.36200
C1773       C  0.67951197  0.46487636  0.13337213    -0.21200
C1774       C  0.70563047  0.43535588  0.13376613    -0.21200
C1775       C  0.73749551  0.01768527  0.23549269    -0.21200
C1776       C  0.76357034  0.48765055  0.23549801    -0.21200
C1777       C  0.67538056  0.08583431  0.16562068    -0.22300
C1778       C  0.68390734  0.09495861  0.18346476    -0.22300
C1779       C  0.83135163  0.41758250  0.16762995    -0.22300
C1780       C  0.84057067  0.42543023  0.18563443    -0.22300
C1781       C  0.67977775  0.52803145  0.14746542    -0.17600
C1782       C  0.77088302  0.42623889  0.14844483    -0.17600
C1783       C  0.80333507  0.45321885  0.21192134    -0.17600
C1784       C  0.70749913  0.05838099  0.21076818    -0.17600
H1785       H  0.65481091  0.46788196  0.12403417     0.15300
H1786       H  0.70515104  0.41131964  0.12476929     0.15300
H1787       H  0.72265048  0.02915073  0.24726186     0.15300
H1788       H  0.77245775  0.47219646  0.24763514     0.15300
H1789       H  0.66237143  0.10428672  0.15542178     0.13600
H1790       H  0.67915080  0.12218916  0.18958832     0.13500
H1791       H  0.85012807  0.40383739  0.15783311     0.13600
H1792       H  0.86832879  0.41893227  0.19234820     0.13500
H1793       H  0.74528750  0.49375193  0.16205820     0.26800
H1794       H  0.76202448  0.51036173  0.19262670     0.26800
C1795       C  0.74496955  0.17063658  0.97017856    -0.10200
C1796       C  0.77099721  0.19133066  0.95941548    -0.04100
C1797       C  0.78788106  0.22460388  0.96543063    -0.10200
C1798       C  0.78184322  0.23626305  0.98366536     0.10800
C1799       C  0.75858053  0.21349061  0.99550402    -0.02000
C1800       C  0.73972501  0.18059254  0.98871018     0.10600
C1801       C  0.71651825  0.15881580  0.00056566    -0.12000
C1802       C  0.71292773  0.16829007  0.01901329    -0.12000
C1803       C  0.73066523  0.20095012  0.02592370     0.10600
C1804       C  0.75311184  0.22428485  0.01398305    -0.02000
C1805       C  0.79810473  0.26981577  0.99033482    -0.12100
C1806       C  0.79183665  0.28097672  0.00840336    -0.12100
C1807       C  0.76980662  0.25853828  0.02046557     0.10800
C1808       C  0.76352735  0.26912014  0.03888067    -0.10200
C1809       C  0.74283072  0.24511339  0.05037373    -0.04100
C1810       C  0.72657330  0.21144958  0.04443348    -0.10200
H1811       H  0.70187138  0.13374756  0.99571778     0.08000
H1812       H  0.69566865  0.15016809  0.02781859     0.08000
H1813       H  0.81573659  0.28766822  0.98155950     0.08200
H1814       H  0.80470249  0.30713141  0.01296938     0.08200
H1815       H  0.77517231  0.18325867  0.94523641     0.04600
H1816       H  0.73880806  0.25321734  0.06454801     0.04600
O1817       O  0.60276310  0.17152517  0.77525541    -0.57200
C1818       C  0.67201931  0.07450411  0.77390877     0.75500
O1819       O  0.58824344  0.09910605  0.72308243    -0.58300
C1820       C  0.56730201  0.17744018  0.77028052     0.75400
C1821       C  0.67199847  0.17343024  0.72527118     0.77800
Cd1822     Cd  0.62125962  0.12632884  0.75034537     1.37500
O1823       O  0.64321373  0.09359899  0.77970310    -0.57200
O1824       O  0.66125566  0.18580243  0.74069469    -0.56000
C1825       C  0.55892567  0.08382889  0.73077961     0.77800
O1826       O  0.66022112  0.14043364  0.72192174    -0.58300
O1827       O  0.67732092  0.07771531  0.75686045    -0.56800
O1828       O  0.55757217  0.16329840  0.75509951    -0.56800
O1829       O  0.55997302  0.08392196  0.74807038    -0.56000
O1830       O  0.89964466  0.35012316  0.77465634    -0.57200
C1831       C  0.81176214  0.42026257  0.76837117     0.75500
O1832       O  0.89588233  0.40713794  0.72098875    -0.58300
C1833       C  0.91436575  0.31994733  0.76869246     0.75400
C1834       C  0.81679655  0.32395484  0.72239856     0.77800
Cd1835     Cd  0.86525970  0.37285854  0.74671581     1.37500
O1836       O  0.82172678  0.38699526  0.77278921    -0.57200
O1837       O  0.80442571  0.33334432  0.73804151    -0.56000
C1838       C  0.91111437  0.43422547  0.72969259     0.77800
O1839       O  0.84995606  0.33773624  0.71815343    -0.58300
O1840       O  0.82168048  0.43064054  0.75245518    -0.56800
O1841       O  0.91035703  0.31515663  0.75168332    -0.56800
O1842       O  0.91044922  0.43094651  0.74690634    -0.56000
N1843       N  0.52897807  0.28339864  0.21733612    -0.36000
N1844       N  0.99705848  0.33431354  0.18926833    -0.56500
N1845       N  0.55273552  0.30695752  0.16296077    -0.36000
N1846       N  0.58340687  0.25590382  0.18953187    -0.56500
C1847       C  0.99444023  0.29418469  0.22514890     0.27600
C1848       C  0.54047664  0.24991392  0.22483954     0.27600
C1849       C  0.52591532  0.32425484  0.15220372     0.27600
C1850       C  0.57227410  0.28250075  0.15233657     0.27600
C1851       C  0.98103112  0.34886176  0.20450513     0.36200
C1852       C  0.99419145  0.36125765  0.17615003     0.36200
C1853       C  0.59863126  0.24051441  0.20487852     0.36200
C1854       C  0.61206521  0.25431581  0.17680031     0.36200
C1855       C  0.98430085  0.26760304  0.23827658    -0.21200
C1856       C  0.51315440  0.23967841  0.23801997    -0.21200
C1857       C  0.52814388  0.31057762  0.13451328    -0.21200
C1858       C  0.55762736  0.28402168  0.13459318    -0.21200
C1859       C  0.96873021  0.38563899  0.20103709    -0.22300
C1860       C  0.97677160  0.39329088  0.18299818    -0.22300
C1861       C  0.63778741  0.23033747  0.20198485    -0.22300
C1862       C  0.64608461  0.23869574  0.18405886    -0.22300
C1863       C  0.97270642  0.32763757  0.22054252    -0.17600
C1864       C  0.57547004  0.22949400  0.22001536    -0.17600
C1865       C  0.60515244  0.26156271  0.15818544    -0.17600
C1866       C  0.50344788  0.35528510  0.15766283    -0.17600
H1867       H  0.95850443  0.26787715  0.24691918     0.15300
H1868       H  0.51363449  0.21462168  0.24649112     0.15300
H1869       H  0.51110816  0.31959773  0.12270862     0.15300
H1870       H  0.56776999  0.26838671  0.12286864     0.15300
H1871       H  0.95466452  0.40483604  0.21039878     0.13600
H1872       H  0.96982790  0.41903084  0.17565883     0.13500
H1873       H  0.65783874  0.21682155  0.21156789     0.13600
H1874       H  0.67332754  0.23269277  0.17698974     0.13500
H1875       H  0.54527921  0.29948278  0.20815967     0.26800
H1876       H  0.56095200  0.31524525  0.17608665     0.26800
C1877       C  0.70540865  0.19024865  0.05890660     0.02000
C1878       C  0.66510989  0.19849287  0.06135540     0.04800
C1879       C  0.65008429  0.20266999  0.07912947    -0.11300
C1880       C  0.67514475  0.19758654  0.09440299     0.24100
C1881       C  0.71349380  0.18329866  0.09198415    -0.11800
C1882       C  0.72827629  0.17872521  0.07418818     0.05500
C1883       C  0.66283632  0.21238051  0.11242624     0.27900
C1884       C  0.66845084  0.25073372  0.11634929    -0.12500
C1885       C  0.65320900  0.26603998  0.13250281     0.06000
C1886       C  0.62994343  0.24357180  0.14412678    -0.08500
C1887       C  0.62458955  0.20517850  0.14031239     0.06800
C1888       C  0.64196689  0.18955452  0.12474988    -0.12800
Br1889     Br  0.74733463  0.17511075  0.11293201    -0.04900
Br1890     Br  0.63238314  0.21033420  0.04046182     0.00700
Br1891     Br  0.66170979  0.31836373  0.13813602     0.01200
Br1892     Br  0.63414969  0.13771038  0.11946550    -0.03200
Br1893     Br  0.78279176  0.16498765  0.07064623     0.01300
Br1894     Br  0.59693506  0.22075442  0.08261377    -0.02500
Br1895     Br  0.69273045  0.28312133  0.09852011    -0.03400
Br1896     Br  0.58961499  0.17496813  0.15511535     0.00600
C1897       C  0.78534170  0.40559666  0.13186532     0.02000
C1898       C  0.79179843  0.42608246  0.11545591     0.04800
C1899       C  0.79419663  0.40748869  0.09848975    -0.11300
C1900       C  0.79149840  0.36797685  0.09771809     0.24100
C1901       C  0.78848486  0.34725074  0.11426474    -0.11800
C1902       C  0.78460127  0.36598302  0.13118514     0.05500
C1903       C  0.78803162  0.34874928  0.07956531     0.27900
C1904       C  0.75184176  0.35035359  0.06989761    -0.12500
C1905       C  0.74649068  0.32917050  0.05386135     0.06000
C1906       C  0.77641192  0.30459273  0.04780315    -0.08500
C1907       C  0.81359755  0.30540557  0.05649183     0.06800
C1908       C  0.81952724  0.32754896  0.07222955    -0.12800
Br1909     Br  0.78891744  0.29308256  0.11380663    -0.04900
Br1910     Br  0.79857677  0.47982810  0.11634118     0.00700
Br1911     Br  0.69582102  0.32895245  0.04162999     0.01200
Br1912     Br  0.86989149  0.32581926  0.08444350    -0.03200
Br1913     Br  0.77545323  0.33745987  0.15325199     0.01300
Br1914     Br  0.80269095  0.43597416  0.07628533    -0.02500
Br1915     Br  0.70780757  0.37798684  0.07979763    -0.03400
Br1916     Br  0.85484426  0.27239233  0.04811161     0.00600
C1917       C  0.80764354  0.24682658  0.95088474     0.02000
C1918       C  0.84468308  0.23448371  0.94467296     0.04800
C1919       C  0.85681178  0.24275698  0.92671101    -0.11300
C1920       C  0.83227924  0.26418292  0.91490278     0.24100
C1921       C  0.79576061  0.27767038  0.92133449    -0.11800
C1922       C  0.78398961  0.26974849  0.93940030     0.05500
C1923       C  0.84495842  0.27184735  0.89573714     0.27900
C1924       C  0.87458822  0.29865505  0.89223091    -0.12500
C1925       C  0.88870480  0.30389510  0.87431780     0.06000
C1926       C  0.87881993  0.27781445  0.86064957    -0.08500
C1927       C  0.84789856  0.25218957  0.86382356     0.06800
C1928       C  0.83021129  0.24999639  0.88119159    -0.12800
Br1929     Br  0.75981334  0.30335584  0.90488965    -0.04900
Br1930     Br  0.87711709  0.20339370  0.96044768     0.00700
Br1931     Br  0.92714241  0.34212044  0.86902596     0.01200
Br1932     Br  0.78923202  0.21371742  0.88555133    -0.03200
Br1933     Br  0.73379442  0.28770224  0.94804722     0.01300
Br1934     Br  0.90533563  0.22156826  0.91768761    -0.02500
Br1935     Br  0.90161768  0.32213977  0.91239853    -0.03400
Br1936     Br  0.83250999  0.21747756  0.84494154     0.00600
C1937       C  0.71149785  0.06991443  0.86955060     0.02000
C1938       C  0.67880726  0.06296833  0.88092557     0.04800
C1939       C  0.67920791  0.07490930  0.89928970    -0.11300
C1940       C  0.71165163  0.09498235  0.90621933     0.24100
C1941       C  0.74461095  0.10144247  0.89500287    -0.11800
C1942       C  0.74433975  0.08943975  0.87668035     0.05500
C1943       C  0.71096247  0.10997497  0.92518123     0.27900
C1944       C  0.69688373  0.14661545  0.92821369    -0.12500
C1945       C  0.69615578  0.16078936  0.94604722     0.06000
C1946       C  0.72011798  0.14395928  0.95964535    -0.08500
C1947       C  0.73360014  0.10691304  0.95693772     0.06800
C1948       C  0.72633539  0.08895586  0.94007692    -0.12800
Br1949     Br  0.79178256  0.12271029  0.90551478    -0.04900
Br1950     Br  0.63659875  0.03201683  0.87191699     0.00700
Br1951     Br  0.66948568  0.20735474  0.95112193     0.01200
Br1952     Br  0.74081439  0.03718830  0.93681304    -0.03200
Br1953     Br  0.79069624  0.09615260  0.86181415     0.01300
Br1954     Br  0.63853402  0.05918080  0.91588644    -0.02500
Br1955     Br  0.68764126  0.18048460  0.90790552    -0.03400
Br1956     Br  0.76598538  0.08293784  0.97533464     0.00600
C1957       C  0.01779573  0.14690075  0.86217628     0.02000
C1958       C  0.55153264  0.15163586  0.87324735     0.04800
C1959       C  0.55227138  0.13672186  0.89112115    -0.11300
C1960       C  0.01984023  0.11652300  0.89787571     0.24100
C1961       C  0.98605968  0.11201046  0.88688357    -0.11800
C1962       C  0.98557660  0.12590137  0.86885116     0.05500
C1963       C  0.02232744  0.09731032  0.91592319     0.27900
C1964       C  0.03527434  0.05978367  0.91667712    -0.12500
C1965       C  0.03578895  0.04026328  0.93339408     0.06000
C1966       C  0.01739619  0.05596227  0.94882766    -0.08500
C1967       C  0.50571066  0.09407345  0.94830222     0.06800
C1968       C  0.50972095  0.11516893  0.93200397    -0.12800
Br1969     Br  0.93893962  0.09106768  0.89741323    -0.04900
Br1970     Br  0.59444679  0.18241479  0.86465705     0.00700
Br1971     Br  0.05673873  0.98984504  0.93464785     0.01200
Br1972     Br  0.49429327  0.16728524  0.93113211    -0.03200
Br1973     Br  0.93932890  0.11911900  0.85372009     0.01300
Br1974     Br  0.59479638  0.14815563  0.90743873    -0.02500
Br1975     Br  0.04663327  0.03339875  0.89438432    -0.03400
Br1976     Br  0.47957478  0.11581711  0.96904648     0.00600
C1977       C  0.84091662  0.43807811  0.86251113     0.02000
C1978       C  0.83276271  0.40822514  0.87465368     0.04800
C1979       C  0.84793258  0.40913424  0.89260531    -0.11300
C1980       C  0.87709308  0.43553352  0.89732140     0.24100
C1981       C  0.89401814  0.96075618  0.88313044    -0.11800
C1982       C  0.87447622  0.96314929  0.86612331     0.05500
C1983       C  0.89038263  0.43931568  0.91665216     0.27900
C1984       C  0.86797112  0.46126438  0.92882253    -0.12500
C1985       C  0.88280284  0.46933633  0.94638148     0.06000
C1986       C  0.92307240  0.95581670  0.95127804    -0.08500
C1987       C  0.94332121  0.93048208  0.93991399     0.06800
C1988       C  0.92998645  0.92419832  0.92194405    -0.12800
Br1989     Br  0.93627112  0.99487778  0.88870237    -0.04900
Br1990     Br  0.79609492  0.36972509  0.86744315     0.00700
Br1991     Br  0.85494121  0.50315936  0.96226224     0.01200
Br1992     Br  0.96472260  0.90019461  0.90480064    -0.03200
Br1993     Br  0.88629542  0.00403221  0.84954620     0.01300
Br1994     Br  0.82287628  0.38009141  0.91151088    -0.02500
Br1995     Br  0.81979677  0.48474028  0.92042872    -0.03400
Br1996     Br  0.99250992  0.90882888  0.94827844     0.00600
C1997       C  0.65934672  0.54385135  0.13113043     0.02000
C1998       C  0.61854719  0.53813554  0.12897716     0.04800
C1999       C  0.60102979  0.54170169  0.11156494    -0.11300
C2000       C  0.62449681  0.55026148  0.09618320     0.24100
C2001       C  0.66320699  0.05972192  0.09936130    -0.11800
C2002       C  0.68073024  0.05556986  0.11675325     0.05500
C2003       C  0.60836999  0.54392489  0.07754009     0.27900
C2004       C  0.61653359  0.50951619  0.06884463    -0.12500
C2005       C  0.59537502  0.49940638  0.05307963     0.06000
C2006       C  0.56528042  0.52312587  0.04623226    -0.08500
C2007       C  0.55973443  0.55897765  0.05385344     0.06800
C2008       C  0.58147043  0.56950054  0.06944909    -0.12800
Br2009     Br  0.69425546  0.07569177  0.07869467    -0.04900
Br2010     Br  0.58789703  0.52083888  0.14951853     0.00700
Br2011     Br  0.60515052  0.95148161  0.04282417     0.01200
Br2012     Br  0.57144100  0.61725851  0.08071617    -0.03200
Br2013     Br  0.73613442  0.06562936  0.12002995     0.01300
Br2014     Br  0.54534076  0.53236891  0.10867141    -0.02500
Br2015     Br  0.65162620  0.97454199  0.08117971    -0.03400
Br2016     Br  0.51888131  0.59159968  0.04427607     0.00600
C2017       C  0.48868325  0.38090700  0.14307793     0.02000
C2018       C  0.94895123  0.37914790  0.13765076     0.04800
C2019       C  0.93694309  0.39649953  0.12125615    -0.11300
C2020       C  0.46480166  0.41206744  0.10927685     0.24100
C2021       C  0.50439163  0.41527775  0.11508570    -0.11800
C2022       C  0.51598198  0.40095643  0.13227268     0.05500
C2023       C  0.45420196  0.42006259  0.08983680     0.27900
C2024       C  0.46652361  0.39481903  0.07616924    -0.12500
C2025       C  0.46581648  0.40605997  0.05766424     0.06000
C2026       C  0.45238649  0.44227018  0.05280607    -0.08500
C2027       C  0.43260202  0.46389261  0.06604045     0.06800
C2028       C  0.43521082  0.45384182  0.08468581    -0.12800
Br2029     Br  0.54349214  0.43575393  0.09876916    -0.04900
Br2030     Br  0.91216900  0.34817709  0.15107386    -0.00100
Br2031     Br  0.98887949  0.37454642  0.03928829     0.01200
Br2032     Br  0.41767727  0.48858756  0.10308920    -0.03200
Br2033     Br  0.57017107  0.40534506  0.14026038     0.01300
Br2034     Br  0.88258950  0.39728509  0.11491331    -0.02500
Br2035     Br  0.98905772  0.34682094  0.08303512    -0.03400
Br2036     Br  0.40857855  0.51080874  0.05869892     0.00600
C2037       C  0.92756956  0.28551583  0.54244166     0.02000
C2038       C  0.89681018  0.26104719  0.54747369     0.04800
C2039       C  0.87571764  0.26729384  0.56368869    -0.11300
C2040       C  0.88348767  0.29958856  0.57424759     0.24100
C2041       C  0.90873659  0.32753933  0.56710491    -0.11800
C2042       C  0.93179959  0.31994368  0.55159601     0.05500
C2043       C  0.86825415  0.30154088  0.59337520     0.27900
C2044       C  0.82779066  0.30761758  0.59653037    -0.12500
C2045       C  0.81191097  0.30120691  0.61406786     0.06000
C2046       C  0.83630245  0.28863130  0.62863011    -0.08500
C2047       C  0.87721766  0.28502722  0.62578396     0.06800
C2048       C  0.89329530  0.29226774  0.60832403    -0.12800
Br2049     Br  0.91337642  0.37543101  0.57881713    -0.04900
Br2050     Br  0.88814467  0.21602754  0.53346321     0.00700
Br2051     Br  0.75630388  0.30813347  0.61803630     0.01200
Br2052     Br  0.94954759  0.28848503  0.60484488    -0.03200
Br2053     Br  0.97313630  0.35413588  0.54449603     0.01300
Br2054     Br  0.83904859  0.22967615  0.57220267    -0.02500
Br2055     Br  0.79438099  0.32466715  0.57668319    -0.03400
Br2056     Br  0.91044961  0.26652760  0.64538608     0.00600
C2057       C  0.59433913  0.22559731  0.45512126     0.02000
C2058       C  0.57349557  0.19895464  0.44463263     0.04800
C2059       C  0.58404257  0.19238436  0.42632159    -0.11300
C2060       C  0.61909636  0.20779427  0.41927827     0.24100
C2061       C  0.64256454  0.23095331  0.43048951    -0.11800
C2062       C  0.63012900  0.24000693  0.44829365     0.05500
C2063       C  0.63071079  0.20169521  0.39987773     0.27900
C2064       C  0.66051291  0.17548312  0.39565472    -0.12500
C2065       C  0.67438653  0.17261076  0.37758041     0.06000
C2066       C  0.66459565  0.20073425  0.36465518    -0.08500
C2067       C  0.63476431  0.22704008  0.36884326     0.06800
C2068       C  0.61624369  0.22594017  0.38603793    -0.12800
Br2069     Br  0.68850564  0.25476233  0.42026824    -0.04900
Br2070     Br  0.52677344  0.17596604  0.45456575     0.00700
Br2071     Br  0.71224229  0.13457211  0.37110394     0.01200
Br2072     Br  0.57424082  0.26065605  0.39138104    -0.03200
Br2073     Br  0.65855603  0.27674999  0.46238303     0.01300
Br2074     Br  0.54659725  0.16882637  0.41011153    -0.02500
Br2075     Br  0.68769605  0.14934120  0.41521635    -0.03400
Br2076     Br  0.62335103  0.26805517  0.35218572     0.00600
C2077       C  0.50055959  0.32465359  0.44882622     0.02000
C2078       C  0.00981240  0.36328385  0.44852479     0.04800
C2079       C  0.00365884  0.38458988  0.43241158    -0.11300
C2080       C  0.49053245  0.36675570  0.41629961     0.24100
C2081       C  0.48041099  0.32846289  0.41676833    -0.11800
C2082       C  0.48366320  0.30798130  0.43317968     0.05500
C2083       C  0.48794545  0.38751559  0.39865258     0.27900
C2084       C  0.95348507  0.40770118  0.39407704    -0.12500
C2085       C  0.94927154  0.42424752  0.37662274     0.06000
C2086       C  0.48032722  0.42188468  0.36396373    -0.08500
C2087       C  0.51489177  0.40161695  0.36857777     0.06800
C2088       C  0.51886726  0.38489507  0.38595250    -0.12800
Br2089     Br  0.46551600  0.30325838  0.39448835    -0.04900
Br2090     Br  0.03404480  0.38600206  0.46962809     0.00700
Br2091     Br  0.90264309  0.45276612  0.37041364     0.01200
Br2092     Br  0.56792537  0.36121750  0.39296864    -0.03200
Br2093     Br  0.46792970  0.25595014  0.43390105     0.01300
Br2094     Br  0.01505643  0.43757157  0.43206459    -0.02500
Br2095     Br  0.91436889  0.41578499  0.41253253    -0.03400
Br2096     Br  0.55811089  0.39934697  0.35148561     0.00600
C2097       C  0.62001937  0.54334121  0.35904937     0.02000
C2098       C  0.61705314  0.07157278  0.37098746     0.04800
C2099       C  0.63329488  0.06752811  0.38856968    -0.11300
C2100       C  0.65887482  0.53750224  0.39300565     0.24100
C2101       C  0.67076683  0.51453641  0.37841101    -0.11800
C2102       C  0.64972579  0.51590430  0.36176085     0.05500
C2103       C  0.67019300  0.52773238  0.41209913     0.27900
C2104       C  0.70770221  0.04588004  0.41927444    -0.12500
C2105       C  0.71595314  0.03905738  0.43786463     0.06000
C2106       C  0.68926255  0.50995934  0.44872292    -0.08500
C2107       C  0.65455582  0.49566281  0.44076698     0.06800
C2108       C  0.64485259  0.50477642  0.42254772    -0.12800
Br2109     Br  0.71275756  0.47865965  0.38185331    -0.04900
Br2110     Br  0.58109731  0.11221277  0.36535793     0.00700
Br2111     Br  0.76256087  0.06002764  0.44904513     0.01200
Br2112     Br  0.59855330  0.48336335  0.41129107    -0.03200
Br2113     Br  0.65853478  0.47755319  0.34367544     0.01300
Br2114     Br  0.60874129  0.09298041  0.40860047    -0.02500
Br2115     Br  0.74633737  0.07093095  0.40439961    -0.03400
Br2116     Br  0.62252764  0.46082018  0.45444907     0.00600
C2117       C  0.79240484  0.33309755  0.36881078     0.02000
C2118       C  0.82600450  0.32720493  0.37993850     0.04800
C2119       C  0.82613800  0.33932349  0.39820552    -0.11300
C2120       C  0.79337466  0.35866963  0.40518683     0.24100
C2121       C  0.75997426  0.36519996  0.39403676    -0.11800
C2122       C  0.75943064  0.35237560  0.37589528     0.05500
C2123       C  0.79506322  0.37504028  0.42372236     0.27900
C2124       C  0.78166671  0.35484429  0.43915519    -0.12500
C2125       C  0.77398644  0.37406303  0.45553588     0.06000
C2126       C  0.78394105  0.41231202  0.45697269    -0.08500
C2127       C  0.80568295  0.42950470  0.44280576     0.06800
C2128       C  0.80713967  0.41253371  0.42561665    -0.12800
Br2129     Br  0.71417772  0.38975735  0.40411459    -0.04900
Br2130     Br  0.86923379  0.29761160  0.37082456     0.00700
Br2131     Br  0.74494503  0.34981869  0.47487077     0.01200
Br2132     Br  0.81842294  0.44268951  0.40420858    -0.03200
Br2133     Br  0.71211204  0.35805856  0.36126210     0.01300
Br2134     Br  0.86927308  0.32634200  0.41431244    -0.02500
Br2135     Br  0.77070326  0.30209053  0.43738636    -0.03400
Br2136     Br  0.82624827  0.47942372  0.44597471     0.00600
C2137       C  0.70519053  0.15456258  0.63083155     0.02000
C2138       C  0.69512166  0.17685949  0.61540594     0.04800
C2139       C  0.69016244  0.16026166  0.59814089    -0.11300
C2140       C  0.69338122  0.12099583  0.59635335     0.24100
C2141       C  0.69928953  0.09831968  0.61210694    -0.11800
C2142       C  0.70596510  0.11513123  0.62924812     0.05500
C2143       C  0.69584852  0.10411014  0.57786832     0.27900
C2144       C  0.66506520  0.08164699  0.57081032    -0.12500
C2145       C  0.67162439  0.05955151  0.55523261     0.06000
C2146       C  0.70831589  0.06089129  0.54639357    -0.08500
C2147       C  0.73683131  0.08726750  0.55191450     0.06800
C2148       C  0.73127364  0.10786587  0.56797791    -0.12800
Br2149     Br  0.70005732  0.04425114  0.61012104    -0.04900
Br2150     Br  0.68712088  0.23014590  0.61811749     0.00700
Br2151     Br  0.63275342  0.02343969  0.54747265     0.01200
Br2152     Br  0.77453918  0.13698339  0.57771006    -0.03200
Br2153     Br  0.71904816  0.08436298  0.65023461     0.01300
Br2154     Br  0.67805749  0.19102584  0.57695085    -0.02500
Br2155     Br  0.61552945  0.07769227  0.58338413    -0.03400
Br2156     Br  0.78655392  0.08981759  0.53917475     0.00600
C2157       C  0.99939534  0.12871849  0.64309480     0.02000
C2158       C  0.53884973  0.12798225  0.63726040     0.04800
C2159       C  0.54942391  0.14642737  0.62097180    -0.11300
C2160       C  0.02055824  0.16292166  0.60952538     0.24100
C2161       C  0.98131787  0.16514243  0.61575224    -0.11800
C2162       C  0.97098615  0.14894368  0.63271801     0.05500
C2163       C  0.03073562  0.17544392  0.59053947     0.27900
C2164       C  0.04855384  0.21062884  0.58737340    -0.12500
C2165       C  0.05332730  0.22407425  0.56931534     0.06000
C2166       C  0.03775787  0.20381104  0.55436112    -0.08500
C2167       C  0.52396936  0.16698267  0.55742912     0.06800
C2168       C  0.52068076  0.15271116  0.57543641    -0.12800
Br2169     Br  0.94142959  0.18884706  0.60066734    -0.04900
Br2170     Br  0.57758420  0.09806266  0.65036595     0.00700
Br2171     Br  0.07502875  0.27336980  0.56503251     0.01200
Br2172     Br  0.49875076  0.10338652  0.57956229    -0.03200
Br2173     Br  0.91739439  0.15252702  0.64132236     0.01300
Br2174     Br  0.60343549  0.14886902  0.61440943    -0.02500
Br2175     Br  0.06207237  0.24228551  0.60777549    -0.03400
Br2176     Br  0.50445065  0.13832440  0.53705269     0.00600
C2177       C  0.79226219  0.95406202  0.55617346     0.02000
C2178       C  0.82881519  0.46420836  0.55956014     0.04800
C2179       C  0.84518330  0.46320343  0.57726573    -0.11300
C2180       C  0.82351939  0.95295366  0.59183896     0.24100
C2181       C  0.78778879  0.93437248  0.58811440    -0.11800
C2182       C  0.77280894  0.93394661  0.57014139     0.05500
C2183       C  0.83318946  0.96454558  0.61080015     0.27900
C2184       C  0.85153548  0.43685899  0.62323645    -0.12500
C2185       C  0.86721395  0.45008569  0.63976419     0.06000
C2186       C  0.86136336  0.99063905  0.64460188    -0.08500
C2187       C  0.83983740  0.01500760  0.63296383     0.06800
C2188       C  0.82630444  0.00214988  0.61595919    -0.12800
Br2189     Br  0.75652139  0.91472213  0.60792664    -0.04900
Br2190     Br  0.85546897  0.49129127  0.54030442     0.00700
Br2191     Br  0.89782074  0.41651545  0.65523242     0.01200
Br2192     Br  0.80151515  0.03702419  0.59906310    -0.03200
Br2193     Br  0.72172832  0.91242254  0.56517430     0.01300
Br2194     Br  0.89626138  0.48526311  0.58180376    -0.02500
Br2195     Br  0.85776870  0.38515848  0.61725738    -0.03400
Br2196     Br  0.83243958  0.06699850  0.63962061     0.00600
O2197       O  0.89634888  0.92937707  0.27671582    -0.57200
C2198       C  0.82630936  0.83424171  0.27446006     0.75500
O2199       O  0.83930107  0.89789889  0.22319170    -0.58300
C2200       C  0.93057468  0.93818151  0.27118303     0.75400
C2201       C  0.93854083  0.84074255  0.23213107     0.77800
Cd2202     Cd  0.87814650  0.88491119  0.25161768     1.37500
O2203       O  0.85825219  0.84864891  0.28004559    -0.57200
O2204       O  0.93874394  0.84118237  0.24942631    -0.56000
C2205       C  0.82810230  0.93120939  0.22627226     0.77800
O2206       O  0.90899332  0.85646357  0.22464157    -0.58300
O2207       O  0.81791043  0.84193321  0.25798784    -0.56800
O2208       O  0.93963852  0.92573245  0.25559825    -0.56800
O2209       O  0.83934634  0.94414635  0.24155263    -0.56000
N2210       N  0.93927855  0.55174230  0.66355663    -0.36000
N2211       N  0.91133609  0.99958465  0.68975185    -0.56500
N2212       N  0.96911488  0.52402781  0.71695387    -0.36000
N2213       N  0.49624971  0.57853810  0.68940730    -0.56500
C2214       C  0.92069076  0.52669671  0.65284470     0.27600
C2215       C  0.96440466  0.57070036  0.65274369     0.27600
C2216       C  0.95693869  0.99232731  0.72441151     0.27600
C2217       C  0.50381737  0.53515631  0.72462976     0.27600
C2218       C  0.88163564  0.99901019  0.67737602     0.36200
C2219       C  0.89734319  0.98357468  0.70510295     0.36200
C2220       C  0.49733288  0.60664104  0.67678608     0.36200
C2221       C  0.51505299  0.59128031  0.70444356     0.36200
C2222       C  0.93449161  0.52933172  0.63505701    -0.21200
C2223       C  0.96220322  0.55737782  0.63498367    -0.21200
C2224       C  0.98527058  0.98193592  0.73726381    -0.21200
C2225       C  0.51477555  0.50874114  0.73779674    -0.21200
C2226       C  0.84807462  0.98352796  0.68490043    -0.22300
C2227       C  0.85789960  0.97397000  0.70260644    -0.22300
C2228       C  0.51625941  0.63770032  0.68382980    -0.22300
C2229       C  0.52738754  0.62810785  0.70137227    -0.22300
C2230       C  0.88880786  0.50461164  0.65857122    -0.17600
C2231       C  0.98592640  0.60219941  0.65833453    -0.17600
C2232       C  0.52510295  0.56875488  0.71996832    -0.17600
C2233       C  0.92176739  0.97181267  0.71982887    -0.17600
H2234       H  0.92482099  0.51346527  0.62328748     0.15300
H2235       H  0.97819929  0.56742203  0.62315389     0.15300
H2236       H  0.98554348  0.95677353  0.74566098     0.15300
H2237       H  0.54083939  0.50929780  0.74640276     0.15300
H2238       H  0.82020360  0.97823515  0.67810612     0.13600
H2239       H  0.83866417  0.96010259  0.71228723     0.13500
H2240       H  0.52256024  0.66391935  0.67684559     0.13600
H2241       H  0.54338830  0.64613745  0.71066284     0.13500
H2242       H  0.93133744  0.55909451  0.67682165     0.26800
H2243       H  0.95221555  0.53985293  0.70779702     0.26800
C2244       C  0.76552945  0.46986484  0.54278520    -0.10200
C2245       C  0.74427384  0.50026232  0.54943121    -0.04100
C2246       C  0.72273607  0.52405155  0.53796397    -0.10200
C2247       C  0.71917691  0.51555620  0.51920399     0.10800
C2248       C  0.74000322  0.48402994  0.51221418    -0.02000
C2249       C  0.76647117  0.96552545  0.52338992     0.10600
C2250       C  0.78965561  0.93680353  0.51588842    -0.12000
C2251       C  0.78857307  0.92964569  0.49714054    -0.12000
C2252       C  0.76303992  0.94994328  0.48549620     0.10600
C2253       C  0.73965831  0.97947538  0.49278704    -0.02000
C2254       C  0.69593807  0.53763335  0.50729969    -0.12100
C2255       C  0.69221840  0.52831413  0.48884621    -0.12100
C2256       C  0.71246190  0.49725098  0.48170977     0.10800
C2257       C  0.71164962  0.99183825  0.46248090    -0.10200
C2258       C  0.73256432  0.96127032  0.45591493    -0.04100
C2259       C  0.75987815  0.94180278  0.46667914    -0.10200
H2260       H  0.80895025  0.91987625  0.52448699     0.08000
H2261       H  0.80720196  0.90751609  0.49186111     0.08000
H2262       H  0.67997713  0.56185805  0.51228572     0.08200
H2263       H  0.67342126  0.54556760  0.48016269     0.08200
H2264       H  0.74645124  0.50695914  0.56388904     0.04600
H2265       H  0.72986653  0.95434225  0.44149550     0.04600
N2266       N  0.51705893  0.00125190  0.28580832    -0.36000
N2267       N  0.97754542  0.96161165  0.31612494    -0.56500
N2268       N  0.53349895  0.99555472  0.34101429    -0.36000
N2269       N  0.56815996  0.53833172  0.31313279    -0.56500
C2270       C  0.98420872  0.98790244  0.27720051     0.27600
C2271       C  0.53083150  0.53067426  0.27585814     0.27600
C2272       C  0.50682141  0.98067743  0.35253942     0.27600
C2273       C  0.55633518  0.01891721  0.35091203     0.27600
C2274       C  0.96227147  0.94305623  0.30168705     0.36200
C2275       C  0.97329828  0.93871143  0.33089789     0.36200
C2276       C  0.58562525  0.54801719  0.29731554     0.36200
C2277       C  0.59561941  0.54285195  0.32645736     0.36200
C2278       C  0.97886524  0.00809138  0.26105663    -0.21200
C2279       C  0.50771738  0.53550511  0.26028504    -0.21200
C2280       C  0.51186525  0.99550258  0.36986018    -0.21200
C2281       C  0.54327612  0.01944290  0.36888113    -0.21200
C2282       C  0.94765817  0.90845569  0.30750163    -0.22300
C2283       C  0.95474680  0.90576024  0.32600286    -0.22300
C2284       C  0.62440304  0.55892640  0.30070731    -0.22300
C2285       C  0.63054999  0.55594230  0.31921202    -0.22300
C2286       C  0.95976449  0.95753024  0.28352780    -0.17600
C2287       C  0.56576690  0.55162613  0.28028988    -0.17600
C2288       C  0.59169343  0.03501889  0.34451661    -0.17600
C2289       C  0.48523151  0.94804150  0.34880177    -0.17600
H2290       H  0.95556394  0.00435958  0.25105888     0.15300
H2291       H  0.51200670  0.55596000  0.24945668     0.15300
H2292       H  0.49641893  0.98786105  0.38224495     0.15300
H2293       H  0.55576017  0.03390364  0.38045448     0.15300
H2294       H  0.93388027  0.88696330  0.29926515     0.13600
H2295       H  0.94710989  0.88235978  0.33483081     0.13500
H2296       H  0.64598143  0.56851991  0.29088092     0.13600
H2297       H  0.65743771  0.56284486  0.32649143     0.13500
H2298       H  0.53019297  0.98933481  0.29735028     0.26800
H2299       H  0.54069375  0.98457246  0.32831274     0.26800
C2300       C  0.96351602  0.76733380  0.53405338    -0.10200
C2301       C  0.98447043  0.74287241  0.54538461    -0.04100
C2302       C  0.01858396  0.72459311  0.53978406    -0.10200
C2303       C  0.53207773  0.72998972  0.52158199     0.10800
C2304       C  0.01158456  0.75588478  0.50988795    -0.02000
C2305       C  0.97712689  0.77468184  0.51616994     0.10600
C2306       C  0.95741333  0.80013951  0.50449963    -0.12000
C2307       C  0.97193304  0.80820564  0.48708663    -0.12000
C2308       C  0.00617354  0.79049257  0.48066577     0.10600
C2309       C  0.52562350  0.76324678  0.49194856    -0.02000
C2310       C  0.56481442  0.71047206  0.51464804    -0.12100
C2311       C  0.57714907  0.71603141  0.49651878    -0.12100
C2312       C  0.55836957  0.74266027  0.48508754     0.10800
C2313       C  0.57120301  0.74979238  0.46694326    -0.10200
C2314       C  0.55442472  0.77943343  0.45701905    -0.04100
C2315       C  0.52153784  0.79887545  0.46318116    -0.10200
H2316       H  0.93091692  0.81443008  0.50891502     0.08000
H2317       H  0.95621094  0.82852024  0.47866440     0.08000
H2318       H  0.58065749  0.69040408  0.52316269     0.08200
H2319       H  0.60221724  0.70017453  0.49161066     0.08200
H2320       H  0.97411632  0.73835540  0.55928440     0.04600
H2321       H  0.56473462  0.78502599  0.44320882     0.04600
N2322       N  0.77110252  0.72186887  0.65271599    -0.36000
N2323       N  0.79912772  0.77719081  0.67751793    -0.56500
N2324       N  0.74300843  0.74852720  0.70546569    -0.36000
N2325       N  0.71767993  0.69059357  0.67946161    -0.56500
C2326       C  0.80290617  0.73473278  0.64363239     0.27600
C2327       C  0.76059802  0.68924250  0.64486811     0.27600
C2328       C  0.76812913  0.76972629  0.71576206     0.27600
C2329       C  0.72417642  0.72361456  0.71673388     0.27600
C2330       C  0.81247276  0.79215142  0.66157461     0.36200
C2331       C  0.80058120  0.80475186  0.69011282     0.36200
C2332       C  0.70239775  0.67605853  0.66385501     0.36200
C2333       C  0.68962580  0.68723057  0.69244606     0.36200
C2334       C  0.81364519  0.70936066  0.63022098    -0.21200
C2335       C  0.78689058  0.68044477  0.63104668    -0.21200
C2336       C  0.76474344  0.75830161  0.73389128    -0.21200
C2337       C  0.73722217  0.72952237  0.73449620    -0.21200
C2338       C  0.82241913  0.82941481  0.66396488    -0.22300
C2339       C  0.81494275  0.83745778  0.68203261    -0.22300
C2340       C  0.66442612  0.66353910  0.66683048    -0.22300
C2341       C  0.65632707  0.67037804  0.68496086    -0.22300
C2342       C  0.81776213  0.77142549  0.64531604    -0.17600
C2343       C  0.72359681  0.67222469  0.64735169    -0.17600
C2344       C  0.69523653  0.69629804  0.71122260    -0.17600
C2345       C  0.79318762  0.79946810  0.70911108    -0.17600
H2346       H  0.83688225  0.71239358  0.62022862     0.15300
H2347       H  0.78530683  0.65696153  0.62174078     0.15300
H2348       H  0.78077160  0.76903294  0.74555928     0.15300
H2349       H  0.72849092  0.71434930  0.74668125     0.15300
H2350       H  0.83423169  0.84856255  0.65384183     0.13600
H2351       H  0.81968482  0.86437378  0.68847578     0.13500
H2352       H  0.64492817  0.65049253  0.65701640     0.13600
H2353       H  0.62890557  0.66387334  0.69178256     0.13500
H2354       H  0.75311736  0.73779951  0.66113976     0.26800
H2355       H  0.73707487  0.75264401  0.69163912     0.26800
N2356       N  0.75001857  0.75985876  0.28989519    -0.36000
N2357       N  0.70813599  0.71173609  0.31728159    -0.56500
N2358       N  0.74427270  0.75414620  0.34535766    -0.36000
N2359       N  0.78854734  0.80005905  0.31979185    -0.56500
C2360       C  0.73684750  0.73104648  0.27927793     0.27600
C2361       C  0.77872793  0.77886316  0.28061632     0.27600
C2362       C  0.72756076  0.72620506  0.35514153     0.27600
C2363       C  0.77087213  0.77063567  0.35638422     0.27600
C2364       C  0.68929133  0.70258578  0.30165518     0.36200
C2365       C  0.68324479  0.70328781  0.33119471     0.36200
C2366       C  0.79843201  0.82272687  0.30563193     0.36200
C2367       C  0.79254464  0.82064284  0.33522109     0.36200
C2368       C  0.75717133  0.73211009  0.26286215    -0.21200
C2369       C  0.78336033  0.76203111  0.26369320    -0.21200
C2370       C  0.74473816  0.72419523  0.37239342    -0.21200
C2371       C  0.77219873  0.75209712  0.37313854    -0.21200
C2372       C  0.65234817  0.68779485  0.30578780    -0.22300
C2373       C  0.64862997  0.68822832  0.32450863    -0.22300
C2374       C  0.80910176  0.85786811  0.31223172    -0.22300
C2375       C  0.80527618  0.85649913  0.33097472    -0.22300
C2376       C  0.70592229  0.70499155  0.28386149    -0.17600
C2377       C  0.80002520  0.81131635  0.28702126    -0.17600
C2378       C  0.78671602  0.80640429  0.35308699    -0.17600
C2379       C  0.69262008  0.70801367  0.34986226    -0.17600
H2380       H  0.75369796  0.71322566  0.25143673     0.15300
H2381       H  0.80373234  0.77011504  0.25304337     0.15300
H2382       H  0.73720029  0.70625225  0.38379780     0.15300
H2383       H  0.78896602  0.75939950  0.38521257     0.15300
H2384       H  0.63003648  0.67807062  0.29630722     0.13600
H2385       H  0.62350512  0.67855245  0.33228756     0.13500
H2386       H  0.81827126  0.88220490  0.30439742     0.13600
H2387       H  0.81147034  0.87909592  0.34039300     0.13500
H2388       H  0.73773247  0.76786477  0.30226116     0.26800
H2389       H  0.73248080  0.76623152  0.33351735     0.26800
C2390       C  0.47715266  0.96351412  0.03912362    -0.10200
C2391       C  0.50922308  0.98238553  0.04663380    -0.04100
C2392       C  0.53337353  0.00558246  0.03627414    -0.10200
C2393       C  0.52399331  0.51088098  0.01735539     0.10800
C2394       C  0.49344798  0.99133996  0.00934403    -0.02000
C2395       C  0.96969084  0.96652365  0.02005179     0.10600
C2396       C  0.93984770  0.94577202  0.01137510    -0.12000
C2397       C  0.93340767  0.94912704  0.99248147    -0.12000
C2398       C  0.95520743  0.97479974  0.98191301     0.10600
C2399       C  0.98333171  0.49629277  0.99048063    -0.02000
C2400       C  0.54664167  0.53529211  0.00648337    -0.12100
C2401       C  0.53712248  0.54147911  0.98810135    -0.12100
C2402       C  0.50534885  0.52263904  0.97991515     0.10800
C2403       C  0.99474350  0.52913856  0.96141514    -0.10200
C2404       C  0.96423844  0.50837030  0.95372424    -0.04100
C2405       C  0.94498866  0.48003491  0.96333677    -0.10200
H2406       H  0.92170892  0.92647267  0.01914197     0.08000
H2407       H  0.91042769  0.93235357  0.98625130     0.08000
H2408       H  0.57143114  0.55034747  0.01225061     0.08200
H2409       H  0.55480590  0.56111264  0.98030330     0.08200
H2410       H  0.51535250  0.97931993  0.06118706     0.04600
H2411       H  0.95673207  0.51289963  0.93939294     0.04600
N2412       N  0.75003741  0.50095447  0.78880415    -0.36000
N2413       N  0.79508396  0.95304489  0.81563559    -0.56500
N2414       N  0.75841927  0.49458096  0.84452716    -0.36000
N2415       N  0.71160894  0.54019439  0.81924656    -0.56500
C2416       C  0.76224145  0.97143718  0.77813658     0.27600
C2417       C  0.72054755  0.51977365  0.77976094     0.27600
C2418       C  0.77717161  0.46737639  0.85419216     0.27600
C2419       C  0.73321113  0.51143579  0.85604426     0.27600
C2420       C  0.81219950  0.94328260  0.79977407     0.36200
C2421       C  0.82109907  0.94386036  0.82910986     0.36200
C2422       C  0.70073742  0.56296317  0.80513748     0.36200
C2423       C  0.70767045  0.56046175  0.83482340     0.36200
C2424       C  0.74074667  0.97225846  0.76195714    -0.21200
C2425       C  0.71391612  0.00166927  0.76314634    -0.21200
C2426       C  0.76282380  0.46628360  0.87192343    -0.21200
C2427       C  0.73494136  0.49389467  0.87305879    -0.21200
C2428       C  0.84917253  0.92752935  0.80332211    -0.22300
C2429       C  0.85463009  0.92774903  0.82192236    -0.22300
C2430       C  0.68948844  0.59778225  0.81198731    -0.22300
C2431       C  0.69374497  0.59606034  0.83072542    -0.22300
C2432       C  0.79388862  0.94569341  0.78229244    -0.17600
C2433       C  0.69918824  0.55210370  0.78633240    -0.17600
C2434       C  0.71553847  0.54663684  0.85271652    -0.17600
C2435       C  0.81391612  0.94869364  0.84788207    -0.17600
H2436       H  0.74386097  0.95349740  0.75046872     0.15300
H2437       H  0.69409273  0.51068952  0.75232638     0.15300
H2438       H  0.77256579  0.44904562  0.88330090     0.15300
H2439       H  0.71987528  0.50171566  0.88546436     0.15300
H2440       H  0.87031077  0.91713024  0.79353529     0.13600
H2441       H  0.88021614  0.91725776  0.82929791     0.13500
H2442       H  0.68004787  0.62240612  0.80436905     0.13600
H2443       H  0.68757553  0.61848774  0.84022783     0.13500
H2444       H  0.76278849  0.50901166  0.80112141     0.26800
H2445       H  0.76793215  0.50594975  0.83218480     0.26800
N2446       N  0.96469305  0.72748057  0.84117241    -0.36000
N2447       N  0.92952842  0.77497423  0.81395167    -0.56500
N2448       N  0.98145866  0.73984199  0.78612610    -0.36000
N2449       N  0.51921053  0.69469639  0.81521963    -0.56500
C2450       C  0.94355715  0.75087153  0.85180571     0.27600
C2451       C  0.99085006  0.70983346  0.85224315     0.27600
C2452       C  0.96578394  0.76899901  0.77623106     0.27600
C2453       C  0.51305751  0.72563249  0.77691390     0.27600
C2454       C  0.90256239  0.77947301  0.82744167     0.36200
C2455       C  0.91281566  0.78833653  0.79838782     0.36200
C2456       C  0.52402638  0.67032779  0.82940742     0.36200
C2457       C  0.53555125  0.67829721  0.80047497     0.36200
C2458       C  0.95708173  0.74828467  0.86975838    -0.21200
C2459       C  0.98705671  0.72269222  0.86997760    -0.21200
C2460       C  0.98741838  0.77283776  0.76025540    -0.21200
C2461       C  0.51693318  0.74563257  0.76067024    -0.21200
C2462       C  0.86871431  0.79610044  0.82056233    -0.22300
C2463       C  0.87496435  0.80143613  0.80217435    -0.22300
C2464       C  0.54383894  0.63849400  0.82384627    -0.22300
C2465       C  0.55121694  0.64346302  0.80552426    -0.22300
C2466       C  0.90926740  0.77028473  0.84604718    -0.17600
C2467       C  0.01238414  0.67765229  0.84749179    -0.17600
C2468       C  0.53788493  0.69477462  0.78271153    -0.17600
C2469       C  0.93196818  0.79140269  0.78111074    -0.17600
H2470       H  0.94603611  0.76186459  0.88182603     0.15300
H2471       H  0.00261640  0.71308091  0.88210594     0.15300
H2472       H  0.98270746  0.79321642  0.74940170     0.15300
H2473       H  0.53894416  0.74135486  0.75022386     0.15300
H2474       H  0.84236211  0.80360485  0.82800307     0.13600
H2475       H  0.85371648  0.81344914  0.79268476     0.13500
H2476       H  0.55230155  0.61442951  0.83214287     0.13600
H2477       H  0.56596340  0.62329877  0.79689728     0.13500
H2478       H  0.95691900  0.71886707  0.82807643     0.26800
H2479       H  0.96943968  0.72855504  0.79796104     0.26800
O2480       O  0.59610869  0.61105584  0.27370005    -0.57200
C2481       C  0.68793266  0.67909769  0.26992672     0.75500
O2482       O  0.65181803  0.59772346  0.21890180    -0.58300
C2483       C  0.58360592  0.58009623  0.26759950     0.75400
C2484       C  0.58935238  0.69387386  0.23016430     0.77800
Cd2485     Cd  0.63527701  0.63253038  0.24729566     1.37500
O2486       O  0.67711746  0.64613455  0.27434872    -0.57200
O2487       O  0.58978392  0.69038027  0.24736053    -0.56000
C2488       C  0.68514098  0.58415812  0.22338342     0.77800
O2489       O  0.60545978  0.66723996  0.22149175    -0.58300
O2490       O  0.67890389  0.68939922  0.25382559    -0.56800
O2491       O  0.59150899  0.57382475  0.25105590    -0.56800
O2492       O  0.69719913  0.59358138  0.23914321    -0.56000
N2493       N  0.72454402  0.97607703  0.15494961    -0.36000
N2494       N  0.70085369  0.53545969  0.17921617    -0.56500
N2495       N  0.75666469  0.00640353  0.20688273    -0.36000
N2496       N  0.77857716  0.94513727  0.18092288    -0.56500
C2497       C  0.69199579  0.98941573  0.14650318     0.27600
C2498       C  0.73292275  0.94267426  0.14727474     0.27600
C2499       C  0.73275028  0.52872656  0.21702462     0.27600
C2500       C  0.77571136  0.98127350  0.21804663     0.27600
C2501       C  0.68680382  0.54973920  0.16322742     0.36200
C2502       C  0.69985240  0.56360000  0.19150337     0.36200
C2503       C  0.79221007  0.92876600  0.16541179     0.36200
C2504       C  0.80759563  0.94249348  0.19364705     0.36200
C2505       C  0.67866186  0.96364567  0.13372150    -0.21200
C2506       C  0.70454718  0.93394394  0.13425925    -0.21200
C2507       C  0.73691985  0.51729359  0.23512147    -0.21200
C2508       C  0.76426475  0.98812723  0.23593515    -0.21200
C2509       C  0.67700396  0.58720093  0.16523170    -0.22300
C2510       C  0.68523741  0.59605774  0.18315643    -0.22300
C2511       C  0.83014727  0.91573659  0.16819998    -0.22300
C2512       C  0.83993207  0.92422155  0.18606366    -0.22300
C2513       C  0.67867804  0.02668957  0.14792472    -0.17600
C2514       C  0.76947474  0.92438317  0.14918648    -0.17600
C2515       C  0.80358125  0.95302562  0.21238330    -0.17600
C2516       C  0.70772882  0.55881619  0.21048977    -0.17600
H2517       H  0.65413702  0.96676672  0.12429648     0.15300
H2518       H  0.70408449  0.90990760  0.12526215     0.15300
H2519       H  0.72189547  0.52845221  0.24690831     0.15300
H2520       H  0.77338040  0.97301486  0.24813418     0.15300
H2521       H  0.66447206  0.60588364  0.15500925     0.13600
H2522       H  0.68067602  0.62326975  0.18932980     0.13500
H2523       H  0.84857927  0.90150714  0.15842141     0.13600
H2524       H  0.86787001  0.91782657  0.19263444     0.13500
H2525       H  0.74397481  0.99211550  0.16271690     0.26800
H2526       H  0.76167997  0.00967299  0.19293245     0.26800
C2527       C  0.74153771  0.67381394  0.96933452    -0.10200
C2528       C  0.76772130  0.69456727  0.95868433    -0.04100
C2529       C  0.78562055  0.72709151  0.96501477    -0.10200
C2530       C  0.77998932  0.73810899  0.98338319     0.10800
C2531       C  0.75636828  0.71528103  0.99505250    -0.02000
C2532       C  0.73683463  0.68298359  0.98799383     0.10600
C2533       C  0.71357547  0.66097593  0.99972888    -0.12000
C2534       C  0.71061608  0.66959206  0.01829733    -0.12000
C2535       C  0.72885280  0.70177042  0.02545431     0.10600
C2536       C  0.75135016  0.72535941  0.01365739    -0.02000
C2537       C  0.79700360  0.77105173  0.99035868    -0.12100
C2538       C  0.79100958  0.78162873  0.00853681    -0.12100
C2539       C  0.76859703  0.75912633  0.02041673     0.10800
C2540       C  0.76250026  0.76917029  0.03891849    -0.10200
C2541       C  0.74155273  0.74501844  0.05023966    -0.04100
C2542       C  0.72513319  0.71158259  0.04406782    -0.10200
H2543       H  0.69837803  0.63637441  0.99468671     0.08000
H2544       H  0.69334414  0.65125754  0.02699255     0.08000
H2545       H  0.81493971  0.78892171  0.98172781     0.08200
H2546       H  0.80438656  0.80737545  0.01332949     0.08200
H2547       H  0.77168792  0.68693148  0.94443399     0.04600
H2548       H  0.73764741  0.75271596  0.06447507     0.04600
O2549       O  0.60216086  0.66859812  0.77569071    -0.57200
C2550       C  0.67314863  0.57550202  0.77354869     0.75500
O2551       O  0.58963918  0.59653514  0.72316768    -0.58300
C2552       C  0.56767794  0.67709555  0.77012399     0.75400
C2553       C  0.67136814  0.67390144  0.72504930     0.77800
Cd2554     Cd  0.62155464  0.62621982  0.75005982     1.37500
O2555       O  0.64331283  0.59325741  0.77921814    -0.57200
O2556       O  0.66002131  0.68634768  0.74036165    -0.56000
C2557       C  0.55993507  0.58219553  0.73095557     0.77800
O2558       O  0.66053588  0.64058290  0.72177674    -0.58300
O2559       O  0.67945530  0.57982324  0.75663322    -0.56800
O2560       O  0.55909649  0.66589014  0.75420429    -0.56800
O2561       O  0.56041247  0.58368990  0.74821943    -0.56000
O2562       O  0.90127890  0.85118182  0.77395288    -0.57200
C2563       C  0.81095679  0.91982435  0.76823247     0.75500
O2564       O  0.89078146  0.91075234  0.72055696    -0.58300
C2565       C  0.91432073  0.82015932  0.76814083     0.75400
C2566       C  0.81574794  0.82466535  0.72207211     0.77800
Cd2567     Cd  0.86448189  0.87335046  0.74632858     1.37500
O2568       O  0.82040932  0.88628619  0.77240296    -0.57200
O2569       O  0.80279971  0.83537429  0.73741181    -0.56000
C2570       C  0.90887825  0.93612279  0.72933427     0.77800
O2571       O  0.84969279  0.83699532  0.71806072    -0.58300
O2572       O  0.82148718  0.93082691  0.75252490    -0.56800
O2573       O  0.90820783  0.81444196  0.75132471    -0.56800
O2574       O  0.91173665  0.93033371  0.74637060    -0.56000
N2575       N  0.52853358  0.78227011  0.21749169    -0.36000
N2576       N  0.99564101  0.83208647  0.18925656    -0.56500
N2577       N  0.55152033  0.80456342  0.16295814    -0.36000
N2578       N  0.58310538  0.75453367  0.18964517    -0.56500
C2579       C  0.99416055  0.79311591  0.22543447     0.27600
C2580       C  0.54036431  0.74902136  0.22512344     0.27600
C2581       C  0.52440446  0.82141242  0.15218625     0.27600
C2582       C  0.57124716  0.78011676  0.15239283     0.27600
C2583       C  0.97992719  0.84705690  0.20447779     0.36200
C2584       C  0.99259393  0.85873135  0.17599632     0.36200
C2585       C  0.59831830  0.73914499  0.20499307     0.36200
C2586       C  0.61164152  0.75265973  0.17685183     0.36200
C2587       C  0.98447239  0.76679609  0.23876051    -0.21200
C2588       C  0.51342095  0.73898200  0.23850589    -0.21200
C2589       C  0.52656124  0.80741171  0.13455895    -0.21200
C2590       C  0.55630400  0.78110192  0.13469234    -0.21200
C2591       C  0.96761322  0.88375685  0.20083466    -0.22300
C2592       C  0.97531443  0.89093829  0.18272249    -0.22300
C2593       C  0.63733377  0.72855738  0.20203179    -0.22300
C2594       C  0.64560405  0.73685524  0.18408975    -0.22300
C2595       C  0.97211528  0.82634290  0.22073844    -0.17600
C2596       C  0.57528186  0.72856030  0.22024689    -0.17600
C2597       C  0.60459884  0.75978382  0.15821398    -0.17600
C2598       C  0.50187648  0.85248643  0.15753094    -0.17600
H2599       H  0.95886814  0.76712898  0.24752333     0.15300
H2600       H  0.51425124  0.71412279  0.24711312     0.15300
H2601       H  0.50933442  0.81610533  0.12275287     0.15300
H2602       H  0.56647548  0.76533797  0.12301459     0.15300
H2603       H  0.95389933  0.90328024  0.21014691     0.13600
H2604       H  0.96838215  0.91655304  0.17527722     0.13500
H2605       H  0.65728076  0.71480933  0.21158567     0.13600
H2606       H  0.67272529  0.73055016  0.17698301     0.13500
H2607       H  0.54452979  0.79816528  0.20812379     0.26800
H2608       H  0.55982515  0.81327462  0.17600601     0.26800
C2609       C  0.70403332  0.68993005  0.05839484     0.02000
C2610       C  0.66385112  0.69839825  0.06099612     0.04800
C2611       C  0.64920135  0.70268065  0.07882602    -0.11300
C2612       C  0.67453943  0.69750119  0.09399751     0.24100
C2613       C  0.71274029  0.68294925  0.09142278    -0.11800
C2614       C  0.72701697  0.67800325  0.07356127     0.05500
C2615       C  0.66249502  0.71202492  0.11211474     0.27900
C2616       C  0.66741556  0.75045017  0.11604138    -0.12500
C2617       C  0.65190361  0.76547271  0.13221463     0.06000
C2618       C  0.62979109  0.74239291  0.14408109    -0.08500
C2619       C  0.62572036  0.70379272  0.14038440     0.06800
C2620       C  0.64257706  0.68872555  0.12456495    -0.12800
Br2621     Br  0.74718988  0.67514264  0.11219096    -0.04900
Br2622     Br  0.63088698  0.71055910  0.04022446     0.00700
Br2623     Br  0.65841090  0.81820433  0.13751011     0.01200
Br2624     Br  0.63496727  0.63699588  0.11901683    -0.03200
Br2625     Br  0.78113373  0.66323898  0.06972716     0.01300
Br2626     Br  0.59624380  0.72108454  0.08249654    -0.02500
Br2627     Br  0.69143192  0.78316320  0.09824459    -0.03400
Br2628     Br  0.59323091  0.67230417  0.15577840     0.00600
C2629       C  0.78401868  0.90370534  0.13262037     0.02000
C2630       C  0.79106680  0.92429814  0.11631202     0.04800
C2631       C  0.79393982  0.90585351  0.09932171    -0.11300
C2632       C  0.79143463  0.86631487  0.09842910     0.24100
C2633       C  0.78776307  0.84546972  0.11492249    -0.11800
C2634       C  0.78299664  0.86410175  0.13183546     0.05500
C2635       C  0.78806052  0.84733724  0.08017785     0.27900
C2636       C  0.75219554  0.85000155  0.07028122    -0.12500
C2637       C  0.74677997  0.82937957  0.05407506     0.06000
C2638       C  0.77609634  0.80410030  0.04811795    -0.08500
C2639       C  0.81304066  0.80378538  0.05702662     0.06800
C2640       C  0.81923727  0.82560232  0.07286681    -0.12800
Br2641     Br  0.78821294  0.79130021  0.11439526    -0.04900
Br2642     Br  0.79764446  0.97807696  0.11736003     0.00700
Br2643     Br  0.69687658  0.83137986  0.04123632     0.01200
Br2644     Br  0.86960799  0.82307966  0.08504513    -0.03200
Br2645     Br  0.77167181  0.83554840  0.15367250     0.01300
Br2646     Br  0.80295255  0.93465765  0.07726182    -0.02500
Br2647     Br  0.70859514  0.87855510  0.07998649    -0.03400
Br2648     Br  0.85348728  0.76987820  0.04863436     0.00600
C2649       C  0.80635238  0.74913565  0.95068164     0.02000
C2650       C  0.84343469  0.73628160  0.94475322     0.04800
C2651       C  0.85627871  0.74426379  0.92684521    -0.11300
C2652       C  0.83246219  0.76594143  0.91482063     0.24100
C2653       C  0.79600629  0.78004019  0.92101741    -0.11800
C2654       C  0.78345619  0.77229784  0.93898881     0.05500
C2655       C  0.84557663  0.77304675  0.89563297     0.27900
C2656       C  0.87507440  0.79992900  0.89201318    -0.12500
C2657       C  0.88894845  0.80517751  0.87404699     0.06000
C2658       C  0.87941672  0.77877772  0.86047191    -0.08500
C2659       C  0.84880827  0.75284501  0.86378425     0.06800
C2660       C  0.83089917  0.75098879  0.88113641    -0.12800
Br2661     Br  0.76106415  0.80625684  0.90433121    -0.04900
Br2662     Br  0.87477394  0.70477056  0.96081583     0.00700
Br2663     Br  0.92668646  0.84393050  0.86854386     0.01200
Br2664     Br  0.78933514  0.71526736  0.88552606    -0.03200
Br2665     Br  0.73296877  0.79048803  0.94715409     0.01300
Br2666     Br  0.90464006  0.72224086  0.91815228    -0.02500
Br2667     Br  0.90214924  0.82371769  0.91206216    -0.03400
Br2668     Br  0.83412910  0.71735946  0.84513887     0.00600
C2669       C  0.70992263  0.57040160  0.86924985     0.02000
C2670       C  0.67671463  0.56434049  0.88040102     0.04800
C2671       C  0.67693732  0.57630552  0.89875004    -0.11300
C2672       C  0.70966189  0.59573232  0.90584055     0.24100
C2673       C  0.74316697  0.60125171  0.89485408    -0.11800
C2674       C  0.74315924  0.58900869  0.87657870     0.05500
C2675       C  0.70849511  0.61150165  0.92462655     0.27900
C2676       C  0.69460393  0.64836951  0.92715545    -0.12500
C2677       C  0.69361860  0.66345346  0.94480442     0.06000
C2678       C  0.71697235  0.64699645  0.95874535    -0.08500
C2679       C  0.73022598  0.60972774  0.95652657     0.06800
C2680       C  0.72333607  0.59107335  0.93982156    -0.12800
Br2681     Br  0.79050361  0.62179350  0.90557557    -0.04900
Br2682     Br  0.63380997  0.53460323  0.87111144     0.00700
Br2683     Br  0.66731585  0.71053889  0.94916335     0.01200
Br2684     Br  0.73773034  0.53912587  0.93717082    -0.03200
Br2685     Br  0.79027207  0.59413000  0.86206835     0.01300
Br2686     Br  0.63554747  0.56129274  0.91511207    -0.02500
Br2687     Br  0.68574845  0.68113797  0.90637011    -0.03400
Br2688     Br  0.76206672  0.58636788  0.97532151     0.00600
C2689       C  0.01902002  0.65000030  0.86255748     0.02000
C2690       C  0.55182847  0.65433117  0.87428148     0.04800
C2691       C  0.55115910  0.63867638  0.89202103    -0.11300
C2692       C  0.01832203  0.61804952  0.89798915     0.24100
C2693       C  0.98533763  0.61423801  0.88640973    -0.11800
C2694       C  0.98629883  0.62879878  0.86850162     0.05500
C2695       C  0.01954870  0.59787957  0.91585797     0.27900
C2696       C  0.03191874  0.56013641  0.91635686    -0.12500
C2697       C  0.03210688  0.54007483  0.93294220     0.06000
C2698       C  0.01435418  0.55565819  0.94857303    -0.08500
C2699       C  0.50292021  0.59379862  0.94826869     0.06800
C2700       C  0.50694296  0.61528063  0.93208000    -0.12800
Br2701     Br  0.93718010  0.59357414  0.89598288    -0.04900
Br2702     Br  0.59551824  0.68513683  0.86664495     0.00700
Br2703     Br  0.05221817  0.48931339  0.93380582     0.01200
Br2704     Br  0.49192425  0.66749782  0.93159699    -0.03200
Br2705     Br  0.94150856  0.62217294  0.85242890     0.01300
Br2706     Br  0.59219267  0.64979795  0.90922555    -0.02500
Br2707     Br  0.04347737  0.53438335  0.89390540    -0.03400
Br2708     Br  0.47746419  0.61530696  0.96925644     0.00600
C2709       C  0.84394959  0.93770333  0.86192277     0.02000
C2710       C  0.83544142  0.90830335  0.87424605     0.04800
C2711       C  0.85054369  0.90966971  0.89219580    -0.11300
C2712       C  0.88042100  0.93557253  0.89665156     0.24100
C2713       C  0.89003074  0.46162862  0.88408564    -0.11800
C2714       C  0.87058211  0.46421272  0.86706232     0.05500
C2715       C  0.89384893  0.93981505  0.91595098     0.27900
C2716       C  0.87150162  0.96200620  0.92804309    -0.12500
C2717       C  0.88604679  0.96983875  0.94568436     0.06000
C2718       C  0.92002578  0.45557421  0.95182285    -0.08500
C2719       C  0.94010987  0.43009778  0.94048924     0.06800
C2720       C  0.92660303  0.42376400  0.92256320    -0.12800
Br2721     Br  0.93135600  0.49646419  0.89011342    -0.04900
Br2722     Br  0.79827145  0.87007167  0.86724449     0.00700
Br2723     Br  0.85809452  0.00374362  0.96149091     0.01200
Br2724     Br  0.96126445  0.39995544  0.90534807    -0.03200
Br2725     Br  0.88111471  0.50630057  0.85101275     0.01300
Br2726     Br  0.82421717  0.88242163  0.91136167    -0.02500
Br2727     Br  0.82389520  0.98619870  0.91942719    -0.03400
Br2728     Br  0.98938214  0.40849285  0.94878900     0.00600
C2729       C  0.65810946  0.04264103  0.13166252     0.02000
C2730       C  0.61733047  0.03678633  0.12948038     0.04800
C2731       C  0.59966592  0.04147514  0.11216636    -0.11300
C2732       C  0.62302413  0.05104591  0.09689968     0.24100
C2733       C  0.66468364  0.55902755  0.09859698    -0.11800
C2734       C  0.68208842  0.55582356  0.11607039     0.05500
C2735       C  0.60728107  0.04458101  0.07823744     0.27900
C2736       C  0.61592658  0.01014135  0.06968597    -0.12500
C2737       C  0.59579184  0.00003253  0.05366548     0.06000
C2738       C  0.56577411  0.02351980  0.04656903    -0.08500
C2739       C  0.55931003  0.05920195  0.05423359     0.06800
C2740       C  0.58042190  0.06994656  0.06996790    -0.12800
Br2741     Br  0.69579827  0.57430642  0.07783800    -0.04900
Br2742     Br  0.58702798  0.01737468  0.14969256     0.00700
Br2743     Br  0.60377629  0.45078664  0.04215479     0.01200
Br2744     Br  0.56947286  0.11757826  0.08118525    -0.03200
Br2745     Br  0.73737384  0.56639307  0.11936355     0.01300
Br2746     Br  0.54406438  0.03179906  0.10913201    -0.02500
Br2747     Br  0.65332667  0.47415377  0.07972093    -0.03400
Br2748     Br  0.51771859  0.09099064  0.04464364     0.00600
C2749       C  0.48766393  0.87828382  0.14289084     0.02000
C2750       C  0.94802593  0.87695817  0.13725905     0.04800
C2751       C  0.93651605  0.89500199  0.12096171    -0.11300
C2752       C  0.46479582  0.91081311  0.10924324     0.24100
C2753       C  0.50424446  0.91359536  0.11527927    -0.11800
C2754       C  0.51532564  0.89861030  0.13240932     0.05500
C2755       C  0.45463890  0.91959742  0.08982855     0.27900
C2756       C  0.46619734  0.89433641  0.07604145    -0.12500
C2757       C  0.46590625  0.90596381  0.05757879     0.06000
C2758       C  0.45337785  0.94256580  0.05284314    -0.08500
C2759       C  0.43458720  0.96461761  0.06626786     0.06800
C2760       C  0.43689190  0.95405891  0.08486372    -0.12800
Br2761     Br  0.54372076  0.93474860  0.09938311    -0.04900
Br2762     Br  0.91063572  0.84606184  0.15033459    -0.00100
Br2763     Br  0.98873436  0.87426674  0.03918280     0.01200
Br2764     Br  0.42068198  0.98881811  0.10353142    -0.03200
Br2765     Br  0.56915717  0.90302886  0.14086972     0.01300
Br2766     Br  0.88232713  0.89695952  0.11444604    -0.02500
Br2767     Br  0.98706869  0.84550792  0.08275417    -0.03400
Br2768     Br  0.41310468  0.01292986  0.05936368     0.00600
C2769       C  0.92897402  0.78514371  0.54282476     0.02000
C2770       C  0.89730250  0.76159739  0.54766590     0.04800
C2771       C  0.87642305  0.76807436  0.56391840    -0.11300
C2772       C  0.88549315  0.79969046  0.57475822     0.24100
C2773       C  0.91204036  0.82684390  0.56791877    -0.11800
C2774       C  0.93479395  0.81892374  0.55235818     0.05500
C2775       C  0.87003008  0.80169045  0.59383845     0.27900
C2776       C  0.82965415  0.80853621  0.59683853    -0.12500
C2777       C  0.81316597  0.80166120  0.61420480     0.06000
C2778       C  0.83696347  0.78821653  0.62878639    -0.08500
C2779       C  0.87794855  0.78447629  0.62620752     0.06800
C2780       C  0.89456717  0.79169188  0.60885866    -0.12800
Br2781     Br  0.91903141  0.87392999  0.58018542    -0.04900
Br2782     Br  0.88717545  0.71714977  0.53342503     0.00700
Br2783     Br  0.75755137  0.80920359  0.61787295     0.01200
Br2784     Br  0.95080037  0.78668678  0.60561907    -0.03200
Br2785     Br  0.97823140  0.85121607  0.54586040     0.01300
Br2786     Br  0.83824662  0.73148341  0.57209359    -0.02500
Br2787     Br  0.79718558  0.82709582  0.57696354    -0.03400
Br2788     Br  0.91059521  0.76636587  0.64610390     0.00600
C2789       C  0.59533888  0.72415591  0.45552838     0.02000
C2790       C  0.57398220  0.69787740  0.44504697     0.04800
C2791       C  0.58416848  0.69131872  0.42668659    -0.11300
C2792       C  0.61924120  0.70644864  0.41953087     0.24100
C2793       C  0.64334879  0.72894998  0.43077083    -0.11800
C2794       C  0.63136229  0.73794748  0.44866085     0.05500
C2795       C  0.63043701  0.70040838  0.40005205     0.27900
C2796       C  0.65958892  0.67369540  0.39563463    -0.12500
C2797       C  0.67291624  0.67061440  0.37748226     0.06000
C2798       C  0.66386187  0.69924393  0.36471349    -0.08500
C2799       C  0.63478519  0.72618446  0.36910528     0.06800
C2800       C  0.61624292  0.72502781  0.38630691    -0.12800
Br2801     Br  0.68988568  0.75157289  0.42053964    -0.04900
Br2802     Br  0.52728669  0.67516015  0.45513564     0.00700
Br2803     Br  0.70882723  0.63116948  0.37066420     0.01200
Br2804     Br  0.57445123  0.75987197  0.39175204    -0.03200
Br2805     Br  0.66109731  0.77337616  0.46296552     0.01300
Br2806     Br  0.54644197  0.66782328  0.41061880    -0.02500
Br2807     Br  0.68702599  0.64731096  0.41500822    -0.03400
Br2808     Br  0.62457188  0.76799575  0.35276236     0.00600
C2809       C  0.50293636  0.82437124  0.44943794     0.02000
C2810       C  0.01338675  0.86268668  0.44892523     0.04800
C2811       C  0.00754996  0.88391806  0.43275714    -0.11300
C2812       C  0.49286775  0.86640903  0.41686338     0.24100
C2813       C  0.48152409  0.82843031  0.41755643    -0.11800
C2814       C  0.48506672  0.80795472  0.43396697     0.05500
C2815       C  0.49030768  0.88699916  0.39913776     0.27900
C2816       C  0.95614193  0.90768015  0.39458900    -0.12500
C2817       C  0.95181090  0.92377388  0.37701374     0.06000
C2818       C  0.48257545  0.92065924  0.36422237    -0.08500
C2819       C  0.51686806  0.89996747  0.36885257     0.06800
C2820       C  0.52090904  0.88364417  0.38632330    -0.12800
Br2821     Br  0.46492636  0.80342871  0.39549382    -0.04900
Br2822     Br  0.03869355  0.88498714  0.46987197     0.00700
Br2823     Br  0.90553523  0.95277688  0.37080447     0.01200
Br2824     Br  0.56981999  0.85975483  0.39336871    -0.03200
Br2825     Br  0.46857991  0.75613791  0.43487714     0.01300
Br2826     Br  0.02197298  0.93617402  0.43196159    -0.02500
Br2827     Br  0.91788388  0.91721440  0.41328858    -0.03400
Br2828     Br  0.55979317  0.89668925  0.35165473     0.00600
C2829       C  0.62318418  0.04299622  0.35815899     0.02000
C2830       C  0.61450527  0.57126424  0.37230725     0.04800
C2831       C  0.63057622  0.56588769  0.38986865    -0.11300
C2832       C  0.66224202  0.03986472  0.39206525     0.24100
C2833       C  0.67472121  0.01636872  0.37775949    -0.11800
C2834       C  0.65367496  0.01648457  0.36110454     0.05500
C2835       C  0.67328994  0.03100015  0.41128413     0.27900
C2836       C  0.70463522  0.54240885  0.42014865    -0.12500
C2837       C  0.71295121  0.53513292  0.43869572     0.06000
C2838       C  0.69191805  0.01454790  0.44809436    -0.08500
C2839       C  0.65698326  0.00048305  0.44026460     0.06800
C2840       C  0.64774374  0.00855756  0.42188509    -0.12800
Br2841     Br  0.71721710  0.98114802  0.38169286    -0.04900
Br2842     Br  0.58012342  0.61330116  0.36714792     0.00700
Br2843     Br  0.75895598  0.55678013  0.45009303     0.01200
Br2844     Br  0.60199850  0.98611213  0.41061076    -0.03200
Br2845     Br  0.66364022  0.97781094  0.34330767     0.01300
Br2846     Br  0.60707662  0.59095101  0.41030125    -0.02500
Br2847     Br  0.74316435  0.56785308  0.40535342    -0.03400
Br2848     Br  0.62388768  0.96744211  0.45441996     0.00600
C2849       C  0.79198490  0.83025525  0.36950806     0.02000
C2850       C  0.82535134  0.82475518  0.38083072     0.04800
C2851       C  0.82518408  0.83773340  0.39895456    -0.11300
C2852       C  0.79227586  0.85736297  0.40560701     0.24100
C2853       C  0.75901674  0.86329682  0.39428811    -0.11800
C2854       C  0.75881125  0.84967029  0.37629124     0.05500
C2855       C  0.79405288  0.87515808  0.42381826     0.27900
C2856       C  0.77956098  0.85670627  0.43952336    -0.12500
C2857       C  0.77312107  0.87722782  0.45562668     0.06000
C2858       C  0.78482172  0.91510746  0.45645886    -0.08500
C2859       C  0.80689573  0.93061333  0.44193945     0.06800
C2860       C  0.80791093  0.91218641  0.42509595    -0.12800
Br2861     Br  0.71316556  0.88869322  0.40381375    -0.04900
Br2862     Br  0.86903570  0.79531044  0.37208672     0.00700
Br2863     Br  0.74328301  0.85538963  0.47538644     0.01200
Br2864     Br  0.82143054  0.93979708  0.40319100    -0.03200
Br2865     Br  0.71185046  0.85489336  0.36137207     0.01300
Br2866     Br  0.86844697  0.82628752  0.41527369    -0.02500
Br2867     Br  0.76551107  0.80460888  0.43849061    -0.03400
Br2868     Br  0.82885227  0.98025210  0.44412314     0.00600
C2869       C  0.70608714  0.65360384  0.63098083     0.02000
C2870       C  0.69595119  0.67600705  0.61560877     0.04800
C2871       C  0.69058883  0.65947133  0.59834148    -0.11300
C2872       C  0.69369075  0.62018228  0.59648647     0.24100
C2873       C  0.69950198  0.59746107  0.61223779    -0.11800
C2874       C  0.70646443  0.61418217  0.62938142     0.05500
C2875       C  0.69617516  0.60319680  0.57797717     0.27900
C2876       C  0.66518601  0.58107356  0.57084247    -0.12500
C2877       C  0.67164592  0.55859813  0.55536710     0.06000
C2878       C  0.70863648  0.55884867  0.54676908    -0.08500
C2879       C  0.73767349  0.58463458  0.55243799     0.06800
C2880       C  0.73195466  0.60599944  0.56828050    -0.12800
Br2881     Br  0.69944401  0.54340663  0.61026255    -0.04900
Br2882     Br  0.68892747  0.72943976  0.61839398     0.00700
Br2883     Br  0.63196613  0.52346871  0.54742176     0.01200
Br2884     Br  0.77534980  0.63492978  0.57802972    -0.03200
Br2885     Br  0.71925768  0.58329071  0.65036426     0.01300
Br2886     Br  0.67814076  0.69039675  0.57727701    -0.02500
Br2887     Br  0.61539226  0.57795189  0.58322878    -0.03400
Br2888     Br  0.78804988  0.58549754  0.54020252     0.00600
C2889       C  0.99912913  0.62866888  0.64374800     0.02000
C2890       C  0.53856541  0.62765461  0.63794066     0.04800
C2891       C  0.54923261  0.64551927  0.62151067    -0.11300
C2892       C  0.02039118  0.66181789  0.60993973     0.24100
C2893       C  0.98117976  0.66446200  0.61619870    -0.11800
C2894       C  0.97077693  0.64869308  0.63324613     0.05500
C2895       C  0.03050985  0.67379387  0.59085742     0.27900
C2896       C  0.04933009  0.70843571  0.58749929    -0.12500
C2897       C  0.05408672  0.72154318  0.56938101     0.06000
C2898       C  0.03746990  0.70161365  0.55456554    -0.08500
C2899       C  0.52230551  0.66533448  0.55782688     0.06800
C2900       C  0.51915105  0.65129283  0.57587936    -0.12800
Br2901     Br  0.94133100  0.68803795  0.60103316    -0.04900
Br2902     Br  0.57714912  0.59781706  0.65120148     0.00700
Br2903     Br  0.07732201  0.77010027  0.56486174     0.01200
Br2904     Br  0.49559112  0.60272798  0.58019982    -0.03200
Br2905     Br  0.91700397  0.65207794  0.64166484     0.01300
Br2906     Br  0.60334590  0.64713730  0.61489518    -0.02500
Br2907     Br  0.06417418  0.74003887  0.60773181    -0.03400
Br2908     Br  0.50042550  0.63753132  0.53766310     0.00600
C2909       C  0.79040993  0.45042264  0.55658120     0.02000
C2910       C  0.83024423  0.96863250  0.55949945     0.04800
C2911       C  0.84634038  0.96713408  0.57726635    -0.11300
C2912       C  0.82244321  0.44986146  0.59204780     0.24100
C2913       C  0.78635009  0.43162719  0.58862602    -0.11800
C2914       C  0.77082638  0.43111738  0.57075864     0.05500
C2915       C  0.83290930  0.46176098  0.61087697     0.27900
C2916       C  0.85127114  0.93944951  0.62326756    -0.12500
C2917       C  0.86580380  0.95248219  0.64006261     0.06000
C2918       C  0.86302955  0.48828756  0.64427201    -0.08500
C2919       C  0.84068961  0.51244924  0.63284472     0.06800
C2920       C  0.82642092  0.49944630  0.61597798    -0.12800
Br2921     Br  0.75551506  0.41239166  0.60865747    -0.04900
Br2922     Br  0.85655702  0.99731350  0.54070141     0.00700
Br2923     Br  0.89590645  0.91900398  0.65579160     0.01200
Br2924     Br  0.80082812  0.53407066  0.59922474    -0.03200
Br2925     Br  0.71893647  0.41091046  0.56620156     0.01300
Br2926     Br  0.89694718  0.98981140  0.58225025    -0.02500
Br2927     Br  0.85872819  0.88789970  0.61701777    -0.03400
Br2928     Br  0.83201890  0.56403779  0.63983460     0.00600
loop_ 
_geom_bond_atom_site_label_1 
_geom_bond_atom_site_label_2 
_geom_bond_distance 
_geom_bond_site_symmetry_2 
_ccdc_geom_bond_type 
O1            C4   1.271       .  A
O1           Cd6   2.505       .  S
C2           O11   1.263       .  A
C2            O7   1.266       .  A
C2          C181   1.516       .  S
O3            C9   1.266       .  A
O3           Cd6   2.494       .  S
C4           O12   1.265       .  A
C4           C90   1.508       .  S
C5           O10   1.266       .  A
C5            O8   1.264       .  A
C5          C399   1.503       .  S
Cd6          O13   2.573       .  S
Cd6          O12   2.559       .  S
Cd6          O11   2.594       .  S
Cd6           O7   2.523       .  S
Cd6          O10   2.460       .  S
Cd6           O8   2.572       .  S
C9           O13   1.268       .  A
C9          C319   1.513       .  S
N14          C19   1.344       .  A
N14          C18   1.345       .  A
N14          H46   1.043       .  S
N15          C22   1.351       .  A
N15          C23   1.345       .  A
N16        C1485   1.361       .  A
N16         C752   1.365   1_545  A
N16          H47   1.040       .  S
N17          C24   1.356       .  A
N17          C25   1.349   1_655  A
C18          C26   1.388       .  A
C18          C34   1.402       .  A
C19          C35   1.400       .  A
C19          C27   1.387       .  A
C20         N748   1.364       .  A
C20          C28   1.387       .  A
C20          C37   1.437       .  A
C21        N1480   1.361   1_455  A
C21          C36   1.439       .  A
C21          C29   1.388       .  A
C22          C30   1.381       .  A
C22         C766   1.402       .  A
C23          C37   1.416       .  A
C23          C31   1.393       .  A
C24          C32   1.380   1_655  A
C24        C1499   1.411       .  A
C25          C33   1.393       .  A
C25          C36   1.424       .  A
C26          C27   1.373       .  A
C26          H38   1.082       .  S
C27          H39   1.082       .  S
C28        C2225   1.392       .  A
C28          H40   1.082       .  S
C29        C2224   1.393   1_445  A
C29          H41   1.082       .  S
C30          C31   1.373       .  A
C30          H42   1.082       .  S
C31          H43   1.082       .  S
C32          C33   1.376       .  A
C32          H44   1.082       .  S
C33          H45   1.082       .  S
C34         C722   1.478   1_545  S
C34         C754   1.401   1_545  A
C35         C693   1.489       .  S
C35        C1488   1.411       .  A
C36         C361   1.507       .  S
C37         C374   1.505       .  S
C48         C713   1.480       .  S
C48          C49   1.390   1_565  A
C48         C785   1.412       .  A
C49          C50   1.390       .  A
C49          H68   1.087       .  S
C50         C682   1.475       .  S
C50          C51   1.409       .  A
C51          C52   1.422   1_545  A
C51          C58   1.405       .  A
C52         C785   1.424       .  A
C52         C789   1.414       .  A
C53          C54   1.404       .  A
C53         C780   1.410       .  A
C53         C784   1.422       .  A
C54          C55   1.395       .  A
C54          H64   1.083       .  S
C55          C56   1.404       .  A
C55          H65   1.083       .  S
C56          C57   1.424       .  A
C56          C63   1.411       .  A
C57         C784   1.414       .  A
C57         C792   1.423       .  A
C58          C59   1.396       .  A
C58          H66   1.083       .  S
C59          C60   1.404       .  A
C59          H67   1.083       .  S
C60         C789   1.424   1_545  A
C60         C793   1.410   1_545  A
C61         C642   1.477       .  S
C61          C62   1.387       .  A
C61         C792   1.410       .  A
C62          C63   1.392       .  A
C62          H69   1.088       .  S
C63         C662   1.481       .  S
N70         C807   1.364       .  A
N70        C1538   1.364   1_455  A
N70         H102   1.039       .  S
N71          C78   1.350       .  A
N71          C79   1.355       .  A
N72          C77   1.349       .  A
N72          C76   1.346       .  A
N72         H103   1.040       .  S
N73          C80   1.345       .  A
N73          C81   1.353       .  A
C74        N1534   1.364       .  A
C74          C82   1.387       .  A
C74          C90   1.439       .  A
C75         N802   1.364       .  A
C75          C91   1.437       .  A
C75          C83   1.387       .  A
C76          C84   1.385       .  A
C76          C93   1.402   1_455  A
C77          C92   1.410       .  A
C77          C85   1.389       .  A
C78          C90   1.421       .  A
C78          C86   1.392       .  A
C79          C87   1.381       .  A
C79        C1557   1.409       .  A
C80          C88   1.393       .  A
C80          C91   1.415       .  A
C81          C89   1.381       .  A
C81         C824   1.404       .  A
C82        C2279   1.391       .  A
C82          H94   1.082       .  S
C83        C2278   1.391   1_455  A
C83          H95   1.082       .  S
C84          C85   1.368       .  A
C84          H96   1.082   1_455  S
C85          H97   1.079       .  S
C86          C87   1.374       .  A
C86          H98   1.082       .  S
C87          H99   1.082       .  S
C88          C89   1.369       .  A
C88         H100   1.082       .  S
C89         H101   1.082       .  S
C91         C287   1.500       .  S
C92         C633   1.489       .  S
C92         C813   1.406       .  A
C93         C622   1.484       .  S
C93        C1543   1.409       .  A
C104        C573   1.483       .  S
C104        C105   1.389       .  A
C104        C109   1.412       .  A
C105        C106   1.391       .  A
C105        H124   1.088       .  S
C106        C702   1.491       .  S
C106       C1571   1.422       .  A
C107        C114   1.407       .  A
C107       C1570   1.422       .  A
C107       C1572   1.428       .  A
C108        C109   1.425       .  A
C108       C1571   1.428       .  A
C108       C1577   1.421       .  A
C109        C110   1.405       .  A
C110        C111   1.395       .  A
C110        H120   1.083       .  S
C111        C112   1.404       .  A
C111        H121   1.083       .  S
C112       C1577   1.426       .  A
C112       C1583   1.414       .  A
C113        C116   1.424       .  A
C113       C1572   1.421       .  A
C113       C1576   1.426       .  A
C114        C115   1.405       .  A
C114        H122   1.083       .  S
C115        C116   1.407       .  A
C115        H123   1.083       .  S
C116        C117   1.419       .  A
C117        C593   1.486       .  S
C117        C118   1.393       .  A
C118        C119   1.389       .  A
C118        H125   1.088       .  S
C119        C613   1.485       .  S
C119       C1576   1.414       .  A
N126        C131   1.346       .  A
N126        C130   1.348       .  A
N126        H158   1.041       .  S
N127        C134   1.359       .  A
N127        C135   1.351       .  A
N128        C133   1.368       .  A
N128        C132   1.366       .  A
N128        H159   1.041       .  S
N129        C136   1.357       .  A
N129        C137   1.353       .  A
C130        C138   1.387       .  A
C130        C146   1.405       .  A
C131        C147   1.405       .  A
C131        C139   1.388       .  A
C132        C140   1.389       .  A
C132        C149   1.444       .  A
C133        C148   1.442       .  A
C133        C141   1.387       .  A
C134        C146   1.416       .  A
C134        C142   1.380       .  A
C135        C149   1.426       .  A
C135        C143   1.392       .  A
C136        C144   1.381       .  A
C136        C147   1.415       .  A
C137        C145   1.391       .  A
C137        C148   1.426       .  A
C138        C139   1.373       .  A
C138        H150   1.083       .  S
C139        H151   1.082       .  S
C140        C141   1.388       .  A
C140        H152   1.081       .  S
C141        H153   1.081       .  S
C142        C143   1.378       .  A
C142        H154   1.081       .  S
C143        H155   1.082       .  S
C144        C145   1.378       .  A
C144        H156   1.081       .  S
C145        H157   1.082       .  S
C146        C582   1.497       .  S
C147        C673   1.493       .  S
C148        C357   1.524       .  S
C149        C370   1.516       .  S
N160        C165   1.367       .  A
N160        C164   1.365       .  A
N160        H192   1.039       .  S
N161        C168   1.348       .  A
N161        C169   1.357       .  A
N162        C167   1.345       .  A
N162        C166   1.348       .  A
N162        H193   1.041       .  S
N163        C170   1.351       .  A
N163        C171   1.356       .  A
C164        C172   1.387       .  A
C164        C180   1.440       .  A
C165        C181   1.442       .  A
C165        C173   1.388       .  A
C166        C174   1.388       .  A
C166        C183   1.405       .  A
C167        C182   1.402       .  A
C167        C175   1.386       .  A
C168        C180   1.423       .  A
C168        C176   1.394       .  A
C169        C183   1.411       .  A
C169        C177   1.380       .  A
C170        C178   1.392       .  A
C170        C181   1.424       .  A
C171        C179   1.381       .  A
C171        C182   1.411       .  A
C172        C173   1.389       .  A
C172        H184   1.082       .  S
C173        H185   1.082       .  S
C174        C175   1.362       .  A
C174        H186   1.078       .  S
C175        H187   1.081       .  S
C176        C177   1.375       .  A
C176        H188   1.082       .  S
C177        H189   1.083       .  S
C178        C179   1.377       .  A
C178        H190   1.082       .  S
C179        H191   1.082       .  S
C180        C285   1.506       .  S
C182        C653   1.485       .  S
C183        C602   1.494       .  S
C194        C562   1.486       .  S
C194        C195   1.393   1_655  A
C194       C1663   1.416       .  A
C195        C196   1.390       .  A
C195        H214   1.087       .  S
C196        C542   1.479       .  S
C196        C929   1.410       .  A
C197        C204   1.405       .  A
C197        C928   1.409       .  A
C197        C930   1.422   1_445  A
C198        C929   1.422   1_655  A
C198       C1663   1.426       .  A
C198       C2399   1.417   1_554  A
C199        C200   1.405       .  A
C199       C1658   1.416       .  A
C199       C1662   1.426       .  A
C200        C201   1.399   1_554  A
C200        H210   1.083       .  S
C201        C202   1.406       .  A
C201        H211   1.083       .  S
C202        C935   1.422       .  A
C202        C941   1.411       .  A
C203       C2394   1.418   1_556  A
C203        C934   1.422       .  A
C203       C1670   1.426   1_565  A
C204        C205   1.394   1_554  A
C204        H212   1.083       .  S
C205        C206   1.403       .  A
C205        H213   1.083       .  S
C206       C1667   1.426   1_445  A
C206       C1671   1.413   1_455  A
C207        C502   1.486       .  S
C207        C208   1.391       .  A
C207       C1670   1.413       .  A
C208        C209   1.391   1_545  A
C208        H215   1.087       .  S
C209        C522   1.481       .  S
C209        C934   1.413       .  A
N216        C221   1.367   1_565  A
N216        C952   1.365       .  A
N216        H248   1.039   1_565  S
N217        C224   1.348       .  A
N217        C225   1.356       .  A
N218        C223   1.346   1_565  A
N218        C222   1.350       .  A
N218        H249   1.040   1_565  S
N219        C226   1.356       .  A
N219        C227   1.360       .  A
C220        N948   1.366       .  A
C220        C228   1.386       .  A
C220        C236   1.439       .  A
C221        C237   1.445       .  A
C221        C961   1.390       .  A
C222        C230   1.387       .  A
C222        C971   1.408       .  A
C223        C238   1.406       .  A
C223        C231   1.388   1_545  A
C224        C236   1.421       .  A
C224        C232   1.393       .  A
C225        C239   1.409       .  A
C225        C233   1.380       .  A
C226        C234   1.393       .  A
C226        C237   1.433       .  A
C227        C235   1.380       .  A
C227        C238   1.418       .  A
C228        C229   1.388       .  A
C228        H240   1.082       .  S
C229        C953   1.390       .  A
C229        H973   1.081       .  S
C230        C231   1.364       .  A
C230        H242   1.079       .  S
C231        H243   1.081   1_565  S
C232        C233   1.372       .  A
C232        H244   1.082       .  S
C233        H245   1.083       .  S
C234        C235   1.377       .  A
C234        H246   1.081       .  S
C235        H247   1.082       .  S
C236        C367   1.506       .  S
C237        C354   1.527       .  S
C238        C473   1.495       .  S
C239        C513   1.491       .  S
C239        C954   1.407       .  A
H241        C961   1.081       .  S
N250        C255   1.347       .  A
N250        C254   1.350       .  A
N250        H282   1.040       .  S
N251        C258   1.357       .  A
N251        C259   1.350       .  A
N252        C256   1.363       .  A
N252       C1721   1.365       .  A
N252        H283   1.038       .  S
N253        C260   1.355       .  A
N253        C261   1.350       .  A
C254        C262   1.389       .  A
C254        C270   1.411       .  A
C255        C271   1.404       .  A
C255        C263   1.385       .  A
C256        C264   1.389       .  A
C256        C273   1.440       .  A
C257       N1716   1.365   1_455  A
C257        C272   1.438       .  A
C257        C265   1.386       .  A
C258        C270   1.411       .  A
C258        C266   1.380       .  A
C259        C273   1.425       .  A
C259        C267   1.394       .  A
C260        C268   1.381       .  A
C260       C1735   1.408       .  A
C261        C269   1.392       .  A
C261        C272   1.420       .  A
C262        C263   1.362       .  A
C262        H274   1.078       .  S
C263        H275   1.082       .  S
C264       C1729   1.389       .  A
C264        H276   1.082       .  S
C265       C1728   1.389   1_455  A
C265        H277   1.082       .  S
C266        C267   1.373       .  A
C266        H278   1.082       .  S
C267        H279   1.082       .  S
C268        C269   1.375       .  A
C268        H280   1.082       .  S
C269        H281   1.082       .  S
C270        C462   1.495       .  S
C271        C493   1.485       .  S
C271       C1724   1.408       .  A
C272        C356   1.505       .  S
C273        C369   1.506       .  S
O284        C287   1.265       .  A
O284       Cd289   2.465       .  S
C285        O294   1.266       .  A
C285        O290   1.270       .  A
O286        C292   1.267       .  A
O286       Cd289   2.488       .  S
C287        O295   1.261       .  A
C288        O293   1.268       .  A
C288        O291   1.263       .  A
C288        C400   1.504       .  S
Cd289       O296   2.592       .  S
Cd289       O295   2.575       .  S
Cd289       O294   2.555       .  S
Cd289       O290   2.479       .  S
Cd289       O293   2.456       .  S
Cd289       O291   2.574       .  S
C292        O296   1.268       .  A
C292        C320   1.518       .  S
N297        C302   1.348       .  A
N297        C301   1.344       .  A
N297        H329   1.042       .  S
N298        C305   1.354       .  A
N298        C306   1.350       .  A
N299        C304   1.364       .  A
N299       C1035   1.368       .  A
N299        H330   1.041       .  S
N300        C307   1.361       .  A
N300        C308   1.351       .  A
C301        C309   1.389       .  A
C301        C317   1.404       .  A
C302        C318   1.402       .  A
C302        C310   1.386       .  A
C303       N1031   1.368       .  A
C303        C311   1.387       .  A
C303        C320   1.441       .  A
C304        C319   1.440       .  A
C304        C312   1.389       .  A
C305        C313   1.382       .  A
C305       C1049   1.411       .  A
C306        C320   1.420       .  A
C306        C314   1.391       .  A
C307        C315   1.379       .  A
C307        C318   1.420       .  A
C308        C316   1.392       .  A
C308        C319   1.428       .  A
C309        C310   1.372       .  A
C309        H321   1.082       .  S
C310        H322   1.083       .  S
C311       C1044   1.387   1_545  A
C311        H323   1.081       .  S
C312       C1043   1.387       .  A
C312        H324   1.081       .  S
C313        C314   1.376       .  A
C313        H325   1.081       .  S
C314        H326   1.082       .  S
C315        C316   1.382       .  A
C315        H327   1.080       .  S
C316        H328   1.082       .  S
C317        C533   1.483       .  S
C317       C1037   1.411       .  A
C318        C433   1.506       .  S
C331        C482   1.487       .  S
C331        C332   1.394       .  A
C331        C336   1.415       .  A
C332        C333   1.389       .  A
C332        H351   1.088       .  S
C333        C453   1.484       .  S
C333        C334   1.415       .  A
C334        C335   1.424       .  A
C334        C341   1.406       .  A
C335        C336   1.426       .  A
C335        C340   1.420   1_556  A
C336        C337   1.404   1_556  A
C337        C338   1.398       .  A
C337        H347   1.083   1_554  S
C338        C339   1.406       .  A
C338        H348   1.083       .  S
C339        C340   1.425       .  A
C339        C346   1.414       .  A
C340        C343   1.428       .  A
C341        C342   1.399   1_556  A
C341        H349   1.083       .  S
C342        C343   1.405       .  A
C342        H350   1.083       .  S
C343        C344   1.418       .  A
C344        C442   1.490       .  S
C344        C345   1.388       .  A
C345        C346   1.391       .  A
C345        H352   1.087       .  S
C346        C413   1.484       .  S
O353        C356   1.270       .  A
O353       Cd358   2.519       .  S
C354        O363   1.265       .  A
C354        O359   1.265       .  A
O355        C361   1.267       .  A
O355       Cd358   2.484       .  S
C356        O364   1.264       .  A
C357        O362   1.266       .  A
C357        O360   1.268       .  A
Cd358       O365   2.576       .  S
Cd358       O364   2.552       .  S
Cd358       O363   2.605       .  S
Cd358       O359   2.540       .  S
Cd358       O362   2.517       .  S
Cd358       O360   2.611       .  S
C361        O365   1.264       .  A
O366        C369   1.264       .  A
O366       Cd371   2.475       .  S
C367        O376   1.266       .  A
C367        O372   1.269       .  A
O368        C374   1.268       .  A
O368       Cd371   2.469       .  S
C369        O377   1.263       .  A
C370        O375   1.267       .  A
C370        O373   1.267       .  A
Cd371       O378   2.576       .  S
Cd371       O377   2.578       .  S
Cd371       O376   2.567       .  S
Cd371       O372   2.471       .  S
Cd371       O375   2.494       .  S
Cd371       O373   2.578       .  S
C374        O378   1.263       .  A
N379        C384   1.363       .  A
N379       C1847   1.361   1_455  A
N379        H411   1.041       .  S
N380        C387   1.348       .  A
N380        C388   1.354       .  A
N381        C386   1.346       .  A
N381        C385   1.343       .  A
N381        H412   1.042       .  S
N382        C389   1.344       .  A
N382        C390   1.351       .  A
C383       N1843   1.361       .  A
C383        C391   1.388       .  A
C383        C399   1.435       .  A
C384        C400   1.436       .  A
C384        C392   1.388       .  A
C385        C393   1.387       .  A
C385        C402   1.401       .  A
C386        C401   1.402       .  A
C386        C394   1.387       .  A
C387        C399   1.420       .  A
C387        C395   1.393       .  A
C388        C396   1.381       .  A
C388       C1866   1.407       .  A
C389        C397   1.393       .  A
C389        C400   1.414       .  A
C390        C398   1.380       .  A
C390        C401   1.401       .  A
C391       C1856   1.392       .  A
C391        H403   1.082       .  S
C392       C1855   1.392   1_455  A
C392        H404   1.082       .  S
C393        C394   1.373       .  A
C393        H405   1.082       .  S
C394        H406   1.082       .  S
C395        C396   1.374       .  A
C395        H407   1.082       .  S
C396        H408   1.082       .  S
C397        C398   1.372       .  A
C397        H409   1.082       .  S
C398        H410   1.082       .  S
C401        C422   1.479       .  S
C402        C553   1.481   1_455  S
C402       C1852   1.407   1_455  A
C413        C414   1.409       .  A
C413        C418   1.413       .  A
C414        C415   1.407       .  A
C414       Br426   1.926       .  S
C415        C416   1.409       .  A
C415       Br430   1.930       .  S
C416        C419   1.484       .  S
C416        C417   1.407       .  A
C417        C418   1.407       .  A
C417       Br425   1.928       .  S
C418       Br429   1.930       .  S
C419        C420   1.410       .  A
C419        C424   1.404       .  A
C420        C421   1.405       .  A
C420       Br431   1.923       .  S
C421        C422   1.409       .  A
C421       Br427   1.931       .  S
C422        C423   1.408       .  A
C423        C424   1.402       .  A
C423       Br432   1.933       .  S
C424       Br428   1.906       .  S
C433        C434   1.417       .  A
C433        C438   1.411       .  A
C434        C435   1.413       .  A
C434       Br446   1.928       .  S
C435        C436   1.410       .  A
C435       Br450   1.931       .  S
C436        C439   1.502       .  S
C436        C437   1.416       .  A
C437        C438   1.416       .  A
C437       Br445   1.928       .  S
C438       Br449   1.926       .  S
C439        C440   1.413       .  A
C439        C444   1.416       .  A
C440        C441   1.409       .  A
C440       Br451   1.932       .  S
C441        C442   1.413       .  A
C441       Br447   1.932       .  S
C442        C443   1.409       .  A
C443        C444   1.413       .  A
C443       Br452   1.929       .  S
C444       Br448   1.923       .  S
C453        C454   1.408       .  A
C453        C458   1.411       .  A
C454        C455   1.408       .  A
C454       Br466   1.929       .  S
C455        C456   1.413       .  A
C455       Br470   1.929       .  S
C456        C459   1.491       .  S
C456        C457   1.411       .  A
C457        C458   1.409       .  A
C457       Br465   1.930       .  S
C458       Br469   1.928       .  S
C459        C460   1.410       .  A
C459        C464   1.412       .  A
C460        C461   1.408       .  A
C460       Br471   1.928       .  S
C461        C462   1.408       .  A
C461       Br467   1.925       .  S
C462        C463   1.410       .  A
C463        C464   1.409       .  A
C463       Br472   1.929       .  S
C464       Br468   1.925       .  S
C473        C474   1.411       .  A
C473        C478   1.413       .  A
C474        C475   1.411       .  A
C474       Br486   1.924       .  S
C475        C476   1.407       .  A
C475       Br490   1.924       .  S
C476        C479   1.489       .  S
C476        C477   1.408       .  A
C477        C478   1.409       .  A
C477       Br485   1.929       .  S
C478       Br489   1.930       .  S
C479        C480   1.406       .  A
C479        C484   1.413       .  A
C480        C481   1.402       .  A
C480       Br491   1.929       .  S
C481        C482   1.409       .  A
C481       Br487   1.925       .  S
C482        C483   1.409       .  A
C483        C484   1.413       .  A
C483       Br492   1.924       .  S
C484       Br488   1.922       .  S
C493        C498   1.412       .  A
C493       C1958   1.409       .  A
C494        C495   1.407       .  A
C494       C1957   1.409       .  A
C494       Br506   1.929       .  S
C495       C1960   1.404       .  A
C495       Br510   1.912       .  S
C496        C499   1.483       .  S
C496        C497   1.405       .  A
C496       C1959   1.404       .  A
C497        C498   1.404       .  A
C497       Br505   1.927       .  S
C498       Br509   1.930       .  S
C499        C500   1.405       .  A
C499       C1968   1.409       .  A
C500        C501   1.401       .  A
C500       Br511   1.927       .  S
C501        C502   1.410       .  A
C501       Br507   1.929   1_545  S
C502       C1967   1.412       .  A
C503        C504   1.411       .  A
C503       C1966   1.412       .  A
C503       Br512   1.927   1_455  S
C504       C1963   1.409       .  A
C504       Br508   1.925   1_455  S
C513        C514   1.408       .  A
C513       C1250   1.412       .  A
C514        C515   1.407       .  A
C514       Br526   1.927       .  S
C515        C516   1.409       .  A
C515       Br530   1.923       .  S
C516        C519   1.488       .  S
C516       C1249   1.409       .  A
C517        C518   1.407       .  A
C517       C1248   1.409       .  A
C517       Br525   1.924       .  S
C518       C1245   1.411       .  A
C518       Br529   1.931   1_565  S
C519        C520   1.412       .  A
C519       C1256   1.409       .  A
C520        C521   1.408       .  A
C520       Br531   1.927       .  S
C521       C1254   1.406       .  A
C521       Br527   1.927       .  S
C522        C523   1.410       .  A
C522       C1253   1.407       .  A
C523        C524   1.406       .  A
C523       Br532   1.929       .  S
C524       C1251   1.410       .  A
C524       Br528   1.927       .  S
C533        C534   1.407       .  A
C533       C1270   1.412       .  A
C534        C535   1.406       .  A
C534       Br546   1.929       .  S
C535        C536   1.413       .  A
C535       Br550   1.928       .  S
C536        C539   1.484       .  S
C536       C1269   1.409       .  A
C537        C538   1.407       .  A
C537       C1268   1.408       .  A
C537       Br545   1.929       .  S
C538       C1265   1.411       .  A
C538       Br549   1.927       .  S
C539        C540   1.411       .  A
C539        C544   1.411       .  A
C540        C541   1.403       .  A
C540      Br1283   1.933       .  S
C541        C542   1.409       .  A
C541      Br1279   1.932       .  S
C542        C543   1.408       .  A
C543        C544   1.407       .  A
C543       Br552   1.929       .  S
C544       Br548   1.924       .  S
Br547      C1273   1.932   1_565  S
Br551      C1272   1.933   1_565  S
C553        C558   1.412   1_655  A
C553       C2018   1.405       .  A
C554        C555   1.402       .  A
C554       C2017   1.405       .  A
C554       Br566   1.933       .  S
C555       C2020   1.406       .  A
C555       Br570   1.897       .  S
C556        C559   1.489       .  S
C556        C557   1.410   1_655  A
C556       C2019   1.406       .  A
C557        C558   1.406       .  A
C557       Br565   1.929       .  S
C558       Br569   1.931       .  S
C559        C560   1.413       .  A
C559        C564   1.409       .  A
C560        C561   1.408       .  A
C560      Br2035   1.931       .  S
C561        C562   1.407       .  A
C561      Br2031   1.925       .  S
C562        C563   1.412       .  A
C563        C564   1.409       .  A
C563       Br572   1.926       .  S
C564       Br568   1.929       .  S
Br567      C2025   1.925       .  S
Br571      C2024   1.931       .  S
C573        C574   1.409       .  A
C573        C578   1.407       .  A
C574        C575   1.407       .  A
C574       Br586   1.930       .  S
C575        C576   1.413       .  A
C575       Br590   1.931       .  S
C576        C579   1.496       .  S
C576        C577   1.413       .  A
C577        C578   1.408       .  A
C577       Br585   1.919       .  S
C578       Br589   1.929       .  S
C579        C580   1.409       .  A
C579        C584   1.416       .  A
C580        C581   1.411       .  A
C580       Br591   1.928       .  S
C581        C582   1.413       .  A
C581       Br587   1.924       .  S
C582        C583   1.409       .  A
C583        C584   1.413       .  A
C583       Br592   1.928       .  S
C584       Br588   1.930       .  S
C593        C594   1.412       .  A
C593        C598   1.411       .  A
C594        C595   1.409       .  A
C594       Br606   1.928       .  S
C595        C596   1.409       .  A
C595       Br610   1.929       .  S
C596        C599   1.491       .  S
C596        C597   1.410       .  A
C597        C598   1.410       .  A
C597       Br605   1.927       .  S
C598       Br609   1.927       .  S
C599        C600   1.410       .  A
C599        C604   1.409       .  A
C600        C601   1.409       .  A
C600       Br611   1.928       .  S
C601        C602   1.409       .  A
C601       Br607   1.926       .  S
C602        C603   1.412       .  A
C603        C604   1.409       .  A
C603       Br612   1.930       .  S
C604       Br608   1.926       .  S
C613        C618   1.411   1_455  A
C613       C2078   1.410       .  A
C614        C615   1.410       .  A
C614       C2077   1.410       .  A
C614       Br626   1.927       .  S
C615       C2080   1.411       .  A
C615       Br630   1.925       .  S
C616        C619   1.484       .  S
C616        C617   1.406       .  A
C616       C2079   1.411   1_655  A
C617        C618   1.403       .  A
C617       Br625   1.930       .  S
C618       Br629   1.928       .  S
C619        C624   1.408   1_655  A
C619       C2084   1.407       .  A
C620        C621   1.407       .  A
C620       C2083   1.407       .  A
C620       Br631   1.920       .  S
C621       C2086   1.408       .  A
C621       Br627   1.926       .  S
C622        C623   1.412   1_655  A
C622       C2085   1.408       .  A
C623        C624   1.404       .  A
C623       Br632   1.933       .  S
C624       Br628   1.927       .  S
C633        C638   1.413       .  A
C633       C1366   1.406       .  A
C634        C635   1.401       .  A
C634       C1365   1.404       .  A
C634       Br646   1.929       .  S
C635       C1368   1.409       .  A
C635       Br650   1.920       .  S
C636        C639   1.484       .  S
C636        C637   1.409       .  A
C636       C1367   1.407       .  A
C637        C638   1.407       .  A
C637       Br645   1.923       .  S
C638       Br649   1.931       .  S
C639        C644   1.411       .  A
C639       C1372   1.408       .  A
C640        C641   1.405       .  A
C640       C1371   1.408       .  A
C640       Br651   1.924       .  S
C641       C1374   1.409       .  A
C641       Br647   1.929       .  S
C642        C643   1.407       .  A
C642       C1373   1.409       .  A
C643        C644   1.405       .  A
C643       Br652   1.928       .  S
C644       Br648   1.929       .  S
C653        C654   1.410       .  A
C653        C658   1.413       .  A
C654        C655   1.406       .  A
C654       Br666   1.927       .  S
C655        C656   1.405       .  A
C655       Br670   1.925       .  S
C656        C659   1.480       .  S
C656        C657   1.409       .  A
C657        C658   1.406       .  A
C657       Br665   1.932       .  S
C658       Br669   1.932       .  S
C659        C660   1.411       .  A
C659        C664   1.404       .  A
C660        C661   1.409       .  A
C660       Br671   1.919       .  S
C661        C662   1.407       .  A
C661       Br667   1.927       .  S
C662        C663   1.411       .  A
C663        C664   1.399       .  A
C663       Br672   1.925       .  S
C664       Br668   1.932       .  S
C673        C674   1.413       .  A
C673        C678   1.409       .  A
C674        C675   1.407       .  A
C674       Br686   1.926       .  S
C675        C676   1.408       .  A
C675       Br690   1.931       .  S
C676        C679   1.486       .  S
C676        C677   1.414       .  A
C677        C678   1.410       .  A
C677       Br685   1.930       .  S
C678       Br689   1.927       .  S
C679        C680   1.414       .  A
C679        C684   1.412       .  A
C680        C681   1.407       .  A
C680       Br691   1.924       .  S
C681        C682   1.406       .  A
C681       Br687   1.929       .  S
C682        C683   1.409       .  A
C683        C684   1.402       .  A
C683       Br692   1.933       .  S
C684       Br688   1.933       .  S
C693        C698   1.414       .  A
C693       C2158   1.406       .  A
C694        C695   1.404       .  A
C694       C2157   1.406   1_455  A
C694       Br706   1.933       .  S
C695       C2160   1.407       .  A
C695       Br710   1.898       .  S
C696        C699   1.497       .  S
C696        C697   1.411       .  A
C696       C2159   1.407       .  A
C697        C698   1.410       .  A
C697       Br705   1.928       .  S
C698       Br709   1.930       .  S
C699        C700   1.410       .  A
C699       C2168   1.413       .  A
C700        C701   1.411       .  A
C700       Br711   1.929       .  S
C701        C702   1.414       .  A
C701       Br707   1.928       .  S
C702       C2167   1.410       .  A
C703        C704   1.412       .  A
C703       C2166   1.410       .  A
C703       Br712   1.926       .  S
C704       C2163   1.413       .  A
C704       Br708   1.930   1_455  S
C713        C718   1.410       .  A
C713       C1446   1.410       .  A
C714        C715   1.405       .  A
C714       C1445   1.409       .  A
C714       Br726   1.930       .  S
C715       C1448   1.411       .  A
C715       Br730   1.931       .  S
C716        C719   1.484       .  S
C716        C717   1.408       .  A
C716       C1447   1.411       .  A
C717        C718   1.406       .  A
C717       Br725   1.928       .  S
C718       Br729   1.929       .  S
C719        C724   1.412   1_565  A
C719       C1452   1.408       .  A
C720        C721   1.402       .  A
C720       C1451   1.406       .  A
C720       Br731   1.905       .  S
C721       C1454   1.408       .  A
C721       Br727   1.934       .  S
C722        C723   1.409   1_565  A
C722       C1453   1.408       .  A
C723        C724   1.403       .  A
C723       Br732   1.932       .  S
C724       Br728   1.931       .  S
O733        C736   1.270       .  A
O733       Cd738   2.507       .  S
C734        O743   1.263       .  A
C734        O739   1.266       .  A
C734        C913   1.518       .  S
O735        C741   1.266       .  A
O735       Cd738   2.493       .  S
C736        O744   1.265       .  A
C736        C822   1.507       .  S
C737        O742   1.266       .  A
C737        O740   1.264       .  A
C737       C1131   1.505       .  S
Cd738       O745   2.581       .  S
Cd738       O744   2.560       .  S
Cd738       O743   2.596       .  S
Cd738       O739   2.533       .  S
Cd738       O742   2.460       .  S
Cd738       O740   2.580       .  S
C741        O745   1.268       .  A
C741       C1051   1.516       .  S
N746        C751   1.345       .  A
N746        C750   1.346       .  A
N746        H778   1.043       .  S
N747        C754   1.350       .  A
N747        C755   1.344       .  A
N748       C2217   1.362       .  A
N748        H779   1.040       .  S
N749        C756   1.356       .  A
N749        C757   1.349   1_655  A
C750        C758   1.387       .  A
C750        C766   1.402       .  A
C751        C767   1.401       .  A
C751        C759   1.387       .  A
C752        C760   1.387       .  A
C752        C769   1.439       .  A
C753       N2212   1.362   1_455  A
C753        C768   1.438       .  A
C753        C761   1.388       .  A
C754        C762   1.381       .  A
C755        C769   1.414       .  A
C755        C763   1.392       .  A
C756        C764   1.381   1_655  A
C756       C2231   1.411       .  A
C757        C765   1.393       .  A
C757        C768   1.424       .  A
C758        C759   1.372       .  A
C758        H770   1.082       .  S
C759        H771   1.082       .  S
C760       C1493   1.393   1_565  A
C760        H772   1.082       .  S
C761       C1492   1.392   1_455  A
C761        H773   1.082       .  S
C762        C763   1.375       .  A
C762        H774   1.082       .  S
C763        H775   1.082       .  S
C764        C765   1.375       .  A
C764        H776   1.082       .  S
C765        H777   1.082       .  S
C766       C1454   1.481       .  S
C767       C1425   1.489       .  S
C767       C2220   1.411       .  A
C768       C1093   1.505       .  S
C769       C1106   1.510       .  S
C780       C1445   1.478       .  S
C780        C781   1.390       .  A
C781        C782   1.389       .  A
C781        H800   1.087       .  S
C782       C1414   1.479       .  S
C782        C783   1.411       .  A
C783        C784   1.423       .  A
C783        C790   1.405       .  A
C785        C786   1.404       .  A
C786        C787   1.396       .  A
C786        H796   1.083       .  S
C787        C788   1.405       .  A
C787        H797   1.083       .  S
C788        C789   1.423       .  A
C788        C795   1.411       .  A
C790        C791   1.397       .  A
C790        H798   1.083       .  S
C791        C792   1.405       .  A
C791        H799   1.083       .  S
C793       C1374   1.477   1_565  S
C793        C794   1.387       .  A
C794        C795   1.391       .  A
C794        H801   1.088       .  S
C795       C1394   1.479       .  S
N802       C2270   1.364   1_445  A
N802        H834   1.039   1_545  S
N803        C810   1.350       .  A
N803        C811   1.356       .  A
N804        C809   1.349   1_565  A
N804        C808   1.346       .  A
N804        H835   1.040       .  S
N805        C812   1.345       .  A
N805        C813   1.354       .  A
C806       N2266   1.364   1_565  A
C806        C814   1.388   1_565  A
C806        C822   1.439       .  A
C807        C823   1.438       .  A
C807        C815   1.387       .  A
C808        C816   1.385       .  A
C808        C825   1.402   1_455  A
C809        C824   1.411       .  A
C809        C817   1.389       .  A
C810        C822   1.422       .  A
C810        C818   1.393       .  A
C811       C2289   1.410       .  A
C811        C819   1.380       .  A
C812        C820   1.393       .  A
C812        C823   1.416       .  A
C813        C821   1.381       .  A
C814       C1547   1.391       .  A
C814        H826   1.082       .  S
C815       C1546   1.391   1_455  A
C815        H827   1.082       .  S
C816        C817   1.367   1_565  A
C816        H828   1.082   1_455  S
C817        H829   1.078       .  S
C818        C819   1.375       .  A
C818        H830   1.082       .  S
C819        H831   1.082       .  S
C820        C821   1.371       .  A
C820        H832   1.082       .  S
C821        H833   1.082       .  S
C823       C1019   1.499       .  S
C824       C1365   1.486       .  S
C825       C1354   1.488       .  S
C825       C2275   1.410       .  A
C836       C1305   1.481       .  S
C836        C837   1.388       .  A
C836        C841   1.412       .  A
C837        C838   1.390       .  A
C837        H856   1.088       .  S
C838       C1434   1.490       .  S
C838       C2303   1.422       .  A
C839       C2302   1.422       .  A
C839       C2304   1.428       .  A
C839        C846   1.406       .  A
C840       C2303   1.428       .  A
C840        C841   1.424       .  A
C840       C2309   1.421       .  A
C841        C842   1.405       .  A
C842        C843   1.396       .  A
C842        H852   1.083       .  S
C843        C844   1.404       .  A
C843        H853   1.083       .  S
C844       C2309   1.425       .  A
C844       C2315   1.414       .  A
C845       C2304   1.421       .  A
C845       C2308   1.425       .  A
C845        C848   1.424       .  A
C846        C847   1.405       .  A
C846        H854   1.083       .  S
C847        C848   1.407       .  A
C847        H855   1.083       .  S
C848        C849   1.420       .  A
C849       C1325   1.487       .  S
C849        C850   1.394       .  A
C850        C851   1.389       .  A
C850        H857   1.087       .  S
C851       C1345   1.485       .  S
C851       C2308   1.414       .  A
N858        C863   1.346       .  A
N858        C862   1.349       .  A
N858        H890   1.039       .  S
N859        C866   1.358       .  A
N859        C867   1.351       .  A
N860        C865   1.368       .  A
N860        C864   1.366       .  A
N860        H891   1.039       .  S
N861        C868   1.357       .  A
N861        C869   1.353       .  A
C862        C870   1.387       .  A
C862        C878   1.406       .  A
C863        C879   1.407       .  A
C863        C871   1.388       .  A
C864        C872   1.389       .  A
C864        C881   1.442       .  A
C865        C880   1.441       .  A
C865        C873   1.387       .  A
C866        C878   1.415       .  A
C866        C874   1.381       .  A
C867        C881   1.424       .  A
C867        C875   1.391       .  A
C868        C876   1.381       .  A
C868        C879   1.415       .  A
C869        C877   1.391       .  A
C869        C880   1.424       .  A
C870        C871   1.375       .  A
C870        H882   1.083       .  S
C871        H883   1.083       .  S
C872        C873   1.388       .  A
C872        H884   1.081       .  S
C873        H885   1.081       .  S
C874        C875   1.378       .  A
C874        H886   1.081       .  S
C875        H887   1.082       .  S
C876        C877   1.378       .  A
C876        H888   1.081       .  S
C877        H889   1.082       .  S
C878       C1314   1.497       .  S
C879       C1405   1.493       .  S
C880       C1089   1.521       .  S
C881       C1102   1.515       .  S
N892        C897   1.367       .  A
N892        C896   1.365       .  A
N892        H924   1.039       .  S
N893        C900   1.348       .  A
N893        C901   1.358       .  A
N894        C899   1.345       .  A
N894        C898   1.348       .  A
N894        H925   1.041       .  S
N895        C902   1.352       .  A
N895        C903   1.356       .  A
C896        C904   1.388       .  A
C896        C912   1.441       .  A
C897        C913   1.443       .  A
C897        C905   1.388       .  A
C898        C906   1.387       .  A
C898        C915   1.405       .  A
C899        C914   1.402       .  A
C899        C907   1.387       .  A
C900        C912   1.423       .  A
C900        C908   1.394       .  A
C901        C915   1.411       .  A
C901        C909   1.380       .  A
C902        C910   1.391       .  A
C902        C913   1.424       .  A
C903        C911   1.382       .  A
C903        C914   1.412       .  A
C904        C905   1.389       .  A
C904        H916   1.082       .  S
C905        H917   1.082       .  S
C906        C907   1.364       .  A
C906        H918   1.079       .  S
C907        H919   1.081       .  S
C908        C909   1.375       .  A
C908        H920   1.082       .  S
C909        H921   1.082       .  S
C910        C911   1.378       .  A
C910        H922   1.082       .  S
C911        H923   1.082       .  S
C912       C1017   1.506       .  S
C914       C1385   1.485       .  S
C915       C1334   1.495       .  S
C926       C1294   1.488       .  S
C926        C927   1.392   1_655  A
C926       C2395   1.418       .  A
C927        C928   1.388   1_565  A
C927        H946   1.087       .  S
C928       C1274   1.477       .  S
C929        C936   1.406       .  A
C930       C2395   1.427       .  A
C930       C1667   1.418   1_554  A
C931       C2390   1.418       .  A
C931       C2394   1.427       .  A
C931        C932   1.405       .  A
C932        C933   1.401   1_554  A
C932        H942   1.083       .  S
C933        C934   1.406       .  A
C933        H943   1.083       .  S
C935       C1662   1.417   1_556  A
C935       C2402   1.426       .  A
C936        C937   1.396   1_554  A
C936        H944   1.083       .  S
C937        C938   1.404       .  A
C937        H945   1.083       .  S
C938       C2399   1.426   1_455  A
C938       C2403   1.415   1_455  A
C939       C1234   1.487       .  S
C939       C2402   1.415       .  A
C939        C940   1.391       .  A
C940        C941   1.391       .  A
C940        H947   1.087       .  S
C941       C1254   1.479       .  S
N948        C953   1.366       .  A
N948        H980   1.039       .  S
N949        C956   1.347       .  A
N949        C957   1.356       .  A
N950        C955   1.346       .  A
N950        C954   1.349       .  A
N950        H981   1.039       .  S
N951        C958   1.355       .  A
N951        C959   1.359       .  A
C952        C960   1.386       .  A
C952        C968   1.438       .  A
C953        C969   1.444       .  A
C954        C962   1.387       .  A
C955        C970   1.406       .  A
C955        C963   1.388       .  A
C956        C968   1.419       .  A
C956        C964   1.394       .  A
C957        C971   1.407       .  A
C957        C965   1.380       .  A
C958        C966   1.393       .  A
C958        C969   1.431       .  A
C959        C967   1.380       .  A
C959        C970   1.418       .  A
C960        C961   1.388   1_565  A
C960        H972   1.082       .  S
C962        C963   1.365       .  A
C962        H974   1.079       .  S
C963        H975   1.081       .  S
C964        C965   1.371       .  A
C964        H976   1.082       .  S
C965        H977   1.083       .  S
C966        C967   1.377       .  A
C966        H978   1.081       .  S
C967        H979   1.083       .  S
C968       C1099   1.502       .  S
C969       C1086   1.523       .  S
C970       C1205   1.493       .  S
C971       C1245   1.491       .  S
N982        C987   1.348       .  A
N982        C986   1.350       .  A
N982       H1014   1.040       .  S
N983        C990   1.359       .  A
N983        C991   1.351       .  A
N984       C2453   1.366       .  A
N984        C988   1.365       .  A
N984       H1015   1.037       .  S
N985        C992   1.356       .  A
N985        C993   1.350       .  A
C986        C994   1.390       .  A
C986       C1002   1.411       .  A
C987       C1003   1.403       .  A
C987        C995   1.385       .  A
C988        C996   1.389       .  A
C988       C1005   1.442       .  A
C989       N2448   1.366   1_455  A
C989       C1004   1.441       .  A
C989        C997   1.387       .  A
C990       C1002   1.413       .  A
C990        C998   1.380       .  A
C991       C1005   1.427       .  A
C991        C999   1.394       .  A
C992       C1000   1.380       .  A
C992       C2467   1.408       .  A
C993       C1001   1.393       .  A
C993       C1004   1.423       .  A
C994        C995   1.362       .  A
C994       H1006   1.077       .  S
C995       H1007   1.082       .  S
C996       C2461   1.389       .  A
C996       H1008   1.082       .  S
C997       C2460   1.389   1_455  A
C997       H1009   1.082       .  S
C998        C999   1.374       .  A
C998       H1010   1.082       .  S
C999       H1011   1.082       .  S
C1000      C1001   1.374       .  A
C1000      H1012   1.083       .  S
C1001      H1013   1.082       .  S
C1002      C1194   1.498       .  S
C1003      C1225   1.487       .  S
C1003      C2456   1.408       .  A
C1004      C1088   1.509       .  S
C1005      C1101   1.510       .  S
O1016      C1019   1.265       .  A
O1016     Cd1021   2.467       .  S
C1017      O1026   1.266       .  A
C1017      O1022   1.270       .  A
O1018      C1024   1.267       .  A
O1018     Cd1021   2.491       .  S
C1019      O1027   1.262       .  A
C1020      O1025   1.268       .  A
C1020      O1023   1.262       .  A
C1020      C1132   1.502       .  S
Cd1021     O1028   2.587       .  S
Cd1021     O1027   2.579       .  S
Cd1021     O1026   2.555       .  S
Cd1021     O1022   2.478       .  S
Cd1021     O1025   2.457       .  S
Cd1021     O1023   2.568       .  S
C1024      O1028   1.268       .  A
C1024      C1052   1.518       .  S
N1029      C1034   1.348       .  A
N1029      C1033   1.345       .  A
N1029      H1061   1.041       .  S
N1030      C1037   1.354       .  A
N1030      C1038   1.350       .  A
N1031      C1036   1.364   1_545  A
N1031      H1062   1.041       .  S
N1032      C1039   1.361       .  A
N1032      C1040   1.352       .  A
C1033      C1041   1.388       .  A
C1033      C1049   1.404   1_565  A
C1034      C1050   1.404       .  A
C1034      C1042   1.386       .  A
C1035      C1043   1.387       .  A
C1035      C1052   1.441       .  A
C1036      C1051   1.442       .  A
C1036      C1044   1.389       .  A
C1037      C1045   1.382       .  A
C1038      C1052   1.421       .  A
C1038      C1046   1.391       .  A
C1039      C1047   1.379       .  A
C1039      C1050   1.420       .  A
C1040      C1048   1.393       .  A
C1040      C1051   1.430       .  A
C1041      C1042   1.372       .  A
C1041      H1053   1.082       .  S
C1042      H1054   1.083       .  S
C1043      H1055   1.081       .  S
C1044      H1056   1.081       .  S
C1045      C1046   1.377       .  A
C1045      H1057   1.081       .  S
C1046      H1058   1.082       .  S
C1047      C1048   1.381       .  A
C1047      H1059   1.080       .  S
C1048      H1060   1.082       .  S
C1049      C1265   1.483       .  S
C1050      C1165   1.506       .  S
C1063      C1214   1.487       .  S
C1063      C1064   1.394       .  A
C1063      C1068   1.415       .  A
C1064      C1065   1.389       .  A
C1064      H1083   1.087       .  S
C1065      C1185   1.485       .  S
C1065      C1066   1.415       .  A
C1066      C1067   1.425       .  A
C1066      C1073   1.405       .  A
C1067      C1068   1.426       .  A
C1067      C1072   1.420   1_556  A
C1068      C1069   1.404       .  A
C1069      C1070   1.398   1_556  A
C1069      H1079   1.083       .  S
C1070      C1071   1.405       .  A
C1070      H1080   1.083       .  S
C1071      C1072   1.425       .  A
C1071      C1078   1.414       .  A
C1072      C1075   1.428       .  A
C1073      C1074   1.400   1_556  A
C1073      H1081   1.083       .  S
C1074      C1075   1.405       .  A
C1074      H1082   1.083       .  S
C1075      C1076   1.418       .  A
C1076      C1174   1.490       .  S
C1076      C1077   1.388       .  A
C1077      C1078   1.392       .  A
C1077      H1084   1.087       .  S
C1078      C1145   1.484       .  S
O1085      C1088   1.270       .  A
O1085     Cd1090   2.503       .  S
C1086      O1095   1.264       .  A
C1086      O1091   1.264       .  A
O1087      C1093   1.266       .  A
O1087     Cd1090   2.482       .  S
C1088      O1096   1.265       .  A
C1089      O1094   1.266       .  A
C1089      O1092   1.268       .  A
Cd1090     O1097   2.573       .  S
Cd1090     O1096   2.562       .  S
Cd1090     O1095   2.602       .  S
Cd1090     O1091   2.530       .  S
Cd1090     O1094   2.510       .  S
Cd1090     O1092   2.604       .  S
C1093      O1097   1.264       .  A
O1098      C1101   1.265       .  A
O1098     Cd1103   2.489       .  S
C1099      O1108   1.264       .  A
C1099      O1104   1.269       .  A
O1100      C1106   1.269       .  A
O1100     Cd1103   2.471       .  S
C1101      O1109   1.263       .  A
C1102      O1107   1.268       .  A
C1102      O1105   1.267       .  A
Cd1103     O1110   2.587       .  S
Cd1103     O1109   2.586       .  S
Cd1103     O1108   2.553       .  S
Cd1103     O1104   2.474       .  S
Cd1103     O1107   2.495       .  S
Cd1103     O1105   2.576       .  S
C1106      O1110   1.264       .  A
N1111      C1116   1.362       .  A
N1111      C2579   1.361   1_455  A
N1111      H1143   1.041       .  S
N1112      C1119   1.349       .  A
N1112      C1120   1.354       .  A
N1113      C1118   1.346       .  A
N1113      C1117   1.344       .  A
N1113      H1144   1.042       .  S
N1114      C1121   1.344       .  A
N1114      C1122   1.351       .  A
C1115      N2575   1.361       .  A
C1115      C1123   1.388       .  A
C1115      C1131   1.435       .  A
C1116      C1132   1.436       .  A
C1116      C1124   1.388       .  A
C1117      C1125   1.387       .  A
C1117      C1134   1.401       .  A
C1118      C1133   1.403       .  A
C1118      C1126   1.387       .  A
C1119      C1131   1.421       .  A
C1119      C1127   1.393       .  A
C1120      C2598   1.407       .  A
C1120      C1128   1.380       .  A
C1121      C1129   1.393       .  A
C1121      C1132   1.414       .  A
C1122      C1130   1.381       .  A
C1122      C1133   1.403       .  A
C1123      C2588   1.392       .  A
C1123      H1135   1.082       .  S
C1124      C2587   1.392   1_455  A
C1124      H1136   1.082       .  S
C1125      C1126   1.374       .  A
C1125      H1137   1.082       .  S
C1126      H1138   1.082       .  S
C1127      C1128   1.373       .  A
C1127      H1139   1.082       .  S
C1128      H1140   1.082       .  S
C1129      C1130   1.373       .  A
C1129      H1141   1.082       .  S
C1130      H1142   1.082       .  S
C1133      C1154   1.482       .  S
C1134      C1285   1.482   1_455  S
C1134      C2584   1.407   1_455  A
C1145      C1146   1.409       .  A
C1145      C1150   1.413       .  A
C1146      C1147   1.407       .  A
C1146     Br1158   1.926       .  S
C1147      C1148   1.409       .  A
C1147     Br1162   1.930       .  S
C1148      C1151   1.484       .  S
C1148      C1149   1.407       .  A
C1149      C1150   1.407       .  A
C1149     Br1157   1.928       .  S
C1150     Br1161   1.929       .  S
C1151      C1152   1.409       .  A
C1151      C1156   1.404       .  A
C1152      C1153   1.405       .  A
C1152     Br1163   1.925       .  S
C1153      C1154   1.410       .  A
C1153     Br1159   1.931       .  S
C1154      C1155   1.409       .  A
C1155      C1156   1.402       .  A
C1155     Br1164   1.933       .  S
C1156     Br1160   1.905       .  S
C1165      C1166   1.416       .  A
C1165      C1170   1.411       .  A
C1166      C1167   1.413       .  A
C1166     Br1178   1.929       .  S
C1167      C1168   1.411       .  A
C1167     Br1182   1.931       .  S
C1168      C1171   1.504       .  S
C1168      C1169   1.417       .  A
C1169      C1170   1.417       .  A
C1169     Br1177   1.928       .  S
C1170     Br1181   1.927       .  S
C1171      C1172   1.414       .  A
C1171      C1176   1.417       .  A
C1172      C1173   1.409       .  A
C1172     Br1183   1.932       .  S
C1173      C1174   1.411       .  A
C1173     Br1179   1.931       .  S
C1174      C1175   1.408       .  A
C1175      C1176   1.414       .  A
C1175     Br1184   1.929       .  S
C1176     Br1180   1.923       .  S
C1185      C1186   1.408       .  A
C1185      C1190   1.411       .  A
C1186      C1187   1.409       .  A
C1186     Br1198   1.929       .  S
C1187      C1188   1.413       .  A
C1187     Br1202   1.928       .  S
C1188      C1191   1.494       .  S
C1188      C1189   1.411       .  A
C1189      C1190   1.409       .  A
C1189     Br1197   1.929       .  S
C1190     Br1201   1.928       .  S
C1191      C1192   1.410       .  A
C1191      C1196   1.412       .  A
C1192      C1193   1.409       .  A
C1192     Br1203   1.927       .  S
C1193      C1194   1.408       .  A
C1193     Br1199   1.925       .  S
C1194      C1195   1.411       .  A
C1195      C1196   1.411       .  A
C1195     Br1204   1.929       .  S
C1196     Br1200   1.927       .  S
C1205      C1206   1.410       .  A
C1205      C1210   1.413       .  A
C1206      C1207   1.410       .  A
C1206     Br1218   1.924       .  S
C1207      C1208   1.407       .  A
C1207     Br1222   1.923       .  S
C1208      C1211   1.488       .  S
C1208      C1209   1.408       .  A
C1209      C1210   1.408       .  A
C1209     Br1217   1.930       .  S
C1210     Br1221   1.931       .  S
C1211      C1212   1.406       .  A
C1211      C1216   1.412       .  A
C1212      C1213   1.402       .  A
C1212     Br1223   1.930       .  S
C1213      C1214   1.410       .  A
C1213     Br1219   1.925       .  S
C1214      C1215   1.410       .  A
C1215      C1216   1.413       .  A
C1215     Br1224   1.924       .  S
C1216     Br1220   1.922       .  S
C1225      C2690   1.409       .  A
C1225      C1230   1.412       .  A
C1226      C2689   1.409       .  A
C1226      C1227   1.408       .  A
C1226     Br1238   1.928       .  S
C1227      C2692   1.405       .  A
C1227     Br1242   1.914       .  S
C1228      C1231   1.486       .  S
C1228      C2691   1.405       .  A
C1228      C1229   1.406       .  A
C1229      C1230   1.405       .  A
C1229     Br1237   1.926       .  S
C1230     Br1241   1.930       .  S
C1231      C1232   1.406       .  A
C1231      C2700   1.410       .  A
C1232      C1233   1.402       .  A
C1232     Br1243   1.927       .  S
C1233      C1234   1.411       .  A
C1233     Br1239   1.929       .  S
C1234      C2699   1.412       .  A
C1235      C2698   1.412       .  A
C1235      C1236   1.411       .  A
C1235     Br1244   1.927   1_455  S
C1236      C2695   1.410       .  A
C1236     Br1240   1.925   1_455  S
C1245      C1246   1.407       .  A
C1246      C1247   1.407       .  A
C1246     Br1258   1.927       .  S
C1247      C1248   1.410       .  A
C1247     Br1262   1.923       .  S
C1248      C1251   1.489       .  S
C1249      C1250   1.407       .  A
C1249     Br1257   1.924       .  S
C1250     Br1261   1.931       .  S
C1251      C1252   1.412       .  A
C1252      C1253   1.408       .  A
C1252     Br1263   1.927       .  S
C1253     Br1259   1.927   1_565  S
C1254      C1255   1.409       .  A
C1255      C1256   1.405       .  A
C1255     Br1264   1.929       .  S
C1256     Br1260   1.926       .  S
C1265      C1266   1.407       .  A
C1266      C1267   1.406       .  A
C1266     Br1278   1.929       .  S
C1267      C1268   1.412       .  A
C1267     Br1282   1.929       .  S
C1268      C1271   1.482       .  S
C1269      C1270   1.408       .  A
C1269     Br1277   1.929       .  S
C1270     Br1281   1.927       .  S
C1271      C1272   1.410       .  A
C1271      C1276   1.411       .  A
C1272      C1273   1.402       .  A
C1273      C1274   1.409       .  A
C1274      C1275   1.408       .  A
C1275      C1276   1.407       .  A
C1275     Br1284   1.930       .  S
C1276     Br1280   1.924       .  S
C1285      C2750   1.405       .  A
C1285      C1290   1.412   1_655  A
C1286      C2749   1.405       .  A
C1286      C1287   1.402       .  A
C1286     Br1298   1.933       .  S
C1287      C2752   1.405       .  A
C1287     Br1302   1.896       .  S
C1288      C1291   1.489       .  S
C1288      C2751   1.405       .  A
C1288      C1289   1.410   1_655  A
C1289      C1290   1.406       .  A
C1289     Br1297   1.928       .  S
C1290     Br1301   1.931       .  S
C1291      C1292   1.412       .  A
C1291      C1296   1.408       .  A
C1292      C1293   1.409       .  A
C1292     Br2767   1.931       .  S
C1293      C1294   1.409       .  A
C1293     Br2763   1.925       .  S
C1294      C1295   1.414       .  A
C1295      C1296   1.409       .  A
C1295     Br1304   1.927   1_565  S
C1296     Br1300   1.930       .  S
Br1299     C2757   1.925       .  S
Br1303     C2756   1.931       .  S
C1305      C1306   1.409       .  A
C1305      C1310   1.407       .  A
C1306      C1307   1.407       .  A
C1306     Br1318   1.930       .  S
C1307      C1308   1.414       .  A
C1307     Br1322   1.932       .  S
C1308      C1311   1.495       .  S
C1308      C1309   1.413       .  A
C1309      C1310   1.408       .  A
C1309     Br1317   1.920       .  S
C1310     Br1321   1.930       .  S
C1311      C1312   1.408       .  A
C1311      C1316   1.416       .  A
C1312      C1313   1.410       .  A
C1312     Br1323   1.929       .  S
C1313      C1314   1.413       .  A
C1313     Br1319   1.924       .  S
C1314      C1315   1.409       .  A
C1315      C1316   1.413       .  A
C1315     Br1324   1.928       .  S
C1316     Br1320   1.930       .  S
C1325      C1326   1.412       .  A
C1325      C1330   1.411       .  A
C1326      C1327   1.409       .  A
C1326     Br1338   1.927       .  S
C1327      C1328   1.408       .  A
C1327     Br1342   1.928       .  S
C1328      C1331   1.493       .  S
C1328      C1329   1.410       .  A
C1329      C1330   1.410       .  A
C1329     Br1337   1.926       .  S
C1330     Br1341   1.927       .  S
C1331      C1332   1.410       .  A
C1331      C1336   1.410       .  A
C1332      C1333   1.409       .  A
C1332     Br1343   1.927       .  S
C1333      C1334   1.408       .  A
C1333     Br1339   1.925       .  S
C1334      C1335   1.413       .  A
C1335      C1336   1.409       .  A
C1335     Br1344   1.930       .  S
C1336     Br1340   1.925       .  S
C1345      C2810   1.409       .  A
C1345      C1350   1.411   1_455  A
C1346      C2809   1.409       .  A
C1346      C1347   1.411       .  A
C1346     Br1358   1.928       .  S
C1347      C2812   1.411       .  A
C1347     Br1362   1.924       .  S
C1348      C1351   1.486       .  S
C1348      C2811   1.411   1_655  A
C1348      C1349   1.406       .  A
C1349      C1350   1.403       .  A
C1349     Br1357   1.929       .  S
C1350     Br1361   1.929       .  S
C1351      C2816   1.407       .  A
C1351      C1356   1.407   1_655  A
C1352      C2815   1.407       .  A
C1352      C1353   1.409       .  A
C1352     Br1363   1.921       .  S
C1353      C2818   1.409       .  A
C1353     Br1359   1.925       .  S
C1354      C2817   1.409       .  A
C1354      C1355   1.412   1_655  A
C1355      C1356   1.405       .  A
C1355     Br1364   1.932       .  S
C1356     Br1360   1.927       .  S
C1365      C1370   1.412       .  A
C1366      C1367   1.403       .  A
C1366     Br1378   1.927       .  S
C1367     Br1382   1.921       .  S
C1368      C1371   1.483       .  S
C1368      C1369   1.410       .  A
C1369      C1370   1.407       .  A
C1369     Br1377   1.926   1_545  S
C1370     Br1381   1.931   1_545  S
C1371      C1376   1.411       .  A
C1372      C1373   1.405       .  A
C1372     Br1383   1.925       .  S
C1373     Br1379   1.929       .  S
C1374      C1375   1.407       .  A
C1375      C1376   1.405       .  A
C1375     Br1384   1.927   1_545  S
C1376     Br1380   1.930   1_545  S
C1385      C1386   1.410       .  A
C1385      C1390   1.412       .  A
C1386      C1387   1.406       .  A
C1386     Br1398   1.926       .  S
C1387      C1388   1.406       .  A
C1387     Br1402   1.926       .  S
C1388      C1391   1.479       .  S
C1388      C1389   1.409       .  A
C1389      C1390   1.405       .  A
C1389     Br1397   1.932       .  S
C1390     Br1401   1.932       .  S
C1391      C1392   1.410       .  A
C1391      C1396   1.403       .  A
C1392      C1393   1.408       .  A
C1392     Br1403   1.917       .  S
C1393      C1394   1.407       .  A
C1393     Br1399   1.928       .  S
C1394      C1395   1.412       .  A
C1395      C1396   1.400       .  A
C1395     Br1404   1.926       .  S
C1396     Br1400   1.930       .  S
C1405      C1406   1.413       .  A
C1405      C1410   1.408       .  A
C1406      C1407   1.408       .  A
C1406     Br1418   1.928       .  S
C1407      C1408   1.409       .  A
C1407     Br1422   1.930       .  S
C1408      C1411   1.489       .  S
C1408      C1409   1.414       .  A
C1409      C1410   1.410       .  A
C1409     Br1417   1.930       .  S
C1410     Br1421   1.927       .  S
C1411      C1412   1.414       .  A
C1411      C1416   1.412       .  A
C1412      C1413   1.408       .  A
C1412     Br1423   1.923       .  S
C1413      C1414   1.406       .  A
C1413     Br1419   1.929       .  S
C1414      C1415   1.410       .  A
C1415      C1416   1.404       .  A
C1415     Br1424   1.933       .  S
C1416     Br1420   1.933       .  S
C1425      C2890   1.406       .  A
C1425      C1430   1.414       .  A
C1426      C2889   1.406   1_455  A
C1426      C1427   1.404       .  A
C1426     Br1438   1.934       .  S
C1427      C2892   1.408       .  A
C1427     Br1442   1.901       .  S
C1428      C1431   1.498       .  S
C1428      C2891   1.408       .  A
C1428      C1429   1.411       .  A
C1429      C1430   1.410       .  A
C1429     Br1437   1.929       .  S
C1430     Br1441   1.931       .  S
C1431      C1432   1.410       .  A
C1431      C2900   1.414       .  A
C1432      C1433   1.411       .  A
C1432     Br1443   1.930       .  S
C1433      C1434   1.414       .  A
C1433     Br1439   1.928       .  S
C1434      C2899   1.410       .  A
C1435      C2898   1.410       .  A
C1435      C1436   1.412       .  A
C1435     Br1444   1.927       .  S
C1436      C2895   1.414       .  A
C1436     Br1440   1.930   1_455  S
C1445      C1450   1.409       .  A
C1446      C1447   1.406       .  A
C1446     Br1458   1.930       .  S
C1447     Br1462   1.932       .  S
C1448      C1451   1.484       .  S
C1448      C1449   1.408       .  A
C1449      C1450   1.405       .  A
C1449     Br1457   1.927       .  S
C1450     Br1461   1.930       .  S
C1451      C1456   1.411       .  A
C1452      C1453   1.403       .  A
C1452     Br1463   1.910       .  S
C1453     Br1459   1.934       .  S
C1454      C1455   1.410       .  A
C1455      C1456   1.404       .  A
C1455     Br1464   1.931       .  S
C1456     Br1460   1.931       .  S
O1465      C1468   1.271       .  A
O1465     Cd1470   2.505       .  S
C1466      O1475   1.263       .  A
C1466      O1471   1.266       .  A
C1466      C1645   1.516       .  S
O1467      C1473   1.266       .  A
O1467     Cd1470   2.494       .  S
C1468      O1476   1.265       .  A
C1468      C1554   1.508       .  S
C1469      O1474   1.266       .  A
C1469      O1472   1.264       .  A
C1469      C1863   1.503       .  S
Cd1470     O1477   2.573       .  S
Cd1470     O1476   2.559       .  S
Cd1470     O1475   2.594       .  S
Cd1470     O1471   2.523       .  S
Cd1470     O1474   2.459       .  S
Cd1470     O1472   2.573       .  S
C1473      O1477   1.268       .  A
C1473      C1783   1.513       .  S
N1478      C1483   1.344       .  A
N1478      C1482   1.345       .  A
N1478      H1510   1.043       .  S
N1479      C1486   1.351       .  A
N1479      C1487   1.345       .  A
N1480      C2216   1.365   1_545  A
N1480      H1511   1.040       .  S
N1481      C1488   1.356       .  A
N1481      C1489   1.349       .  A
C1482      C1490   1.388       .  A
C1482      C1498   1.402       .  A
C1483      C1499   1.400       .  A
C1483      C1491   1.387       .  A
C1484      N2212   1.364       .  A
C1484      C1492   1.387       .  A
C1484      C1501   1.437       .  A
C1485      C1500   1.439       .  A
C1485      C1493   1.388       .  A
C1486      C2230   1.402       .  A
C1486      C1494   1.381       .  A
C1487      C1501   1.416       .  A
C1487      C1495   1.393       .  A
C1488      C1496   1.380       .  A
C1489      C1497   1.393       .  A
C1489      C1500   1.424       .  A
C1490      C1491   1.373       .  A
C1490      H1502   1.082       .  S
C1491      H1503   1.082       .  S
C1492      H1504   1.082       .  S
C1493      H1505   1.082       .  S
C1494      C1495   1.373       .  A
C1494      H1506   1.082       .  S
C1495      H1507   1.082       .  S
C1496      C1497   1.376       .  A
C1496      H1508   1.082       .  S
C1497      H1509   1.082       .  S
C1498      C2186   1.478   1_545  S
C1498      C2218   1.401   1_545  A
C1499      C2157   1.489       .  S
C1500      C1825   1.507       .  S
C1501      C1838   1.505       .  S
C1512      C2177   1.480       .  S
C1512      C1513   1.390   1_565  A
C1512      C2249   1.412       .  A
C1513      C1514   1.390       .  A
C1513      H1532   1.087       .  S
C1514      C2146   1.475       .  S
C1514      C1515   1.409       .  A
C1515      C1516   1.422   1_545  A
C1515      C1522   1.405       .  A
C1516      C2249   1.424       .  A
C1516      C2253   1.414       .  A
C1517      C2244   1.410       .  A
C1517      C2248   1.422       .  A
C1517      C1518   1.404       .  A
C1518      C1519   1.395       .  A
C1518      H1528   1.083       .  S
C1519      C1520   1.404       .  A
C1519      H1529   1.083       .  S
C1520      C1521   1.424       .  A
C1520      C1527   1.411       .  A
C1521      C2248   1.414       .  A
C1521      C2256   1.423       .  A
C1522      C1523   1.396       .  A
C1522      H1530   1.083       .  S
C1523      C1524   1.404       .  A
C1523      H1531   1.083       .  S
C1524      C2253   1.424   1_545  A
C1524      C2257   1.410   1_545  A
C1525      C2106   1.477       .  S
C1525      C2256   1.410       .  A
C1525      C1526   1.387       .  A
C1526      C1527   1.392       .  A
C1526      H1533   1.088       .  S
C1527      C2126   1.481       .  S
N1534      C2271   1.364       .  A
N1534      H1566   1.039       .  S
N1535      C1542   1.350       .  A
N1535      C1543   1.355       .  A
N1536      C1541   1.349       .  A
N1536      C1540   1.346       .  A
N1536      H1567   1.040       .  S
N1537      C1544   1.345       .  A
N1537      C1545   1.353       .  A
C1538      C1546   1.387       .  A
C1538      C1554   1.439       .  A
C1539      N2266   1.364       .  A
C1539      C1555   1.437       .  A
C1539      C1547   1.387       .  A
C1540      C1548   1.385       .  A
C1540      C1557   1.402       .  A
C1541      C1556   1.410       .  A
C1541      C1549   1.389       .  A
C1542      C1554   1.421       .  A
C1542      C1550   1.392       .  A
C1543      C1551   1.381       .  A
C1544      C1552   1.393       .  A
C1544      C1555   1.415       .  A
C1545      C1553   1.381       .  A
C1545      C2288   1.404       .  A
C1546      H1558   1.082       .  S
C1547      H1559   1.082       .  S
C1548      C1549   1.368       .  A
C1548      H1560   1.082       .  S
C1549      H1561   1.079       .  S
C1550      C1551   1.374       .  A
C1550      H1562   1.082       .  S
C1551      H1563   1.082       .  S
C1552      C1553   1.369       .  A
C1552      H1564   1.082       .  S
C1553      H1565   1.082       .  S
C1555      C1751   1.500       .  S
C1556      C2097   1.489       .  S
C1556      C2277   1.406       .  A
C1557      C2086   1.484       .  S
C1568      C2037   1.483       .  S
C1568      C1569   1.389       .  A
C1568      C1573   1.412       .  A
C1569      C1570   1.391   1_655  A
C1569      H1588   1.088       .  S
C1570      C2166   1.491       .  S
C1571      C1578   1.407       .  A
C1572      C1573   1.425   1_455  A
C1573      C1574   1.405       .  A
C1574      C1575   1.395       .  A
C1574      H1584   1.083       .  S
C1575      C1576   1.404   1_655  A
C1575      H1585   1.083       .  S
C1577      C1580   1.424       .  A
C1578      C1579   1.405       .  A
C1578      H1586   1.083       .  S
C1579      C1580   1.407       .  A
C1579      H1587   1.083       .  S
C1580      C1581   1.419       .  A
C1581      C2057   1.486       .  S
C1581      C1582   1.393       .  A
C1582      C1583   1.389       .  A
C1582      H1589   1.088       .  S
C1583      C2077   1.485       .  S
N1590      C1595   1.346       .  A
N1590      C1594   1.348       .  A
N1590      H1622   1.041       .  S
N1591      C1598   1.359       .  A
N1591      C1599   1.351       .  A
N1592      C1597   1.368       .  A
N1592      C1596   1.366       .  A
N1592      H1623   1.041       .  S
N1593      C1600   1.357       .  A
N1593      C1601   1.353       .  A
C1594      C1602   1.387       .  A
C1594      C1610   1.405       .  A
C1595      C1611   1.405       .  A
C1595      C1603   1.388       .  A
C1596      C1604   1.389       .  A
C1596      C1613   1.444       .  A
C1597      C1612   1.442       .  A
C1597      C1605   1.387       .  A
C1598      C1610   1.416       .  A
C1598      C1606   1.380       .  A
C1599      C1613   1.426       .  A
C1599      C1607   1.392       .  A
C1600      C1608   1.381       .  A
C1600      C1611   1.415       .  A
C1601      C1609   1.391       .  A
C1601      C1612   1.426       .  A
C1602      C1603   1.373       .  A
C1602      H1614   1.083       .  S
C1603      H1615   1.082       .  S
C1604      C1605   1.388       .  A
C1604      H1616   1.081       .  S
C1605      H1617   1.081       .  S
C1606      C1607   1.378       .  A
C1606      H1618   1.081       .  S
C1607      H1619   1.082       .  S
C1608      C1609   1.378       .  A
C1608      H1620   1.081       .  S
C1609      H1621   1.082       .  S
C1610      C2046   1.497       .  S
C1611      C2137   1.493       .  S
C1612      C1821   1.524       .  S
C1613      C1834   1.516       .  S
N1624      C1629   1.367       .  A
N1624      C1628   1.365       .  A
N1624      H1656   1.039       .  S
N1625      C1632   1.348       .  A
N1625      C1633   1.357       .  A
N1626      C1631   1.345       .  A
N1626      C1630   1.348       .  A
N1626      H1657   1.041       .  S
N1627      C1634   1.351       .  A
N1627      C1635   1.356       .  A
C1628      C1636   1.387       .  A
C1628      C1644   1.440       .  A
C1629      C1645   1.442       .  A
C1629      C1637   1.388       .  A
C1630      C1638   1.388       .  A
C1630      C1647   1.405       .  A
C1631      C1646   1.402       .  A
C1631      C1639   1.386       .  A
C1632      C1644   1.423       .  A
C1632      C1640   1.394       .  A
C1633      C1647   1.411       .  A
C1633      C1641   1.380       .  A
C1634      C1642   1.392       .  A
C1634      C1645   1.424       .  A
C1635      C1643   1.381       .  A
C1635      C1646   1.411       .  A
C1636      C1637   1.389       .  A
C1636      H1648   1.082       .  S
C1637      H1649   1.082       .  S
C1638      C1639   1.362       .  A
C1638      H1650   1.078       .  S
C1639      H1651   1.081       .  S
C1640      C1641   1.375       .  A
C1640      H1652   1.082       .  S
C1641      H1653   1.083       .  S
C1642      C1643   1.377       .  A
C1642      H1654   1.082       .  S
C1643      H1655   1.082       .  S
C1644      C1749   1.506       .  S
C1646      C2117   1.485       .  S
C1647      C2066   1.494       .  S
C1658      C2026   1.486       .  S
C1658      C1659   1.393       .  A
C1659      C1660   1.390       .  A
C1659      H1678   1.087       .  S
C1660      C2006   1.479       .  S
C1660      C2393   1.410       .  A
C1661      C2392   1.409       .  A
C1661      C2394   1.422   1_545  A
C1661      C1668   1.405       .  A
C1662      C2393   1.422       .  A
C1663      C1664   1.405       .  A
C1664      C1665   1.399   1_554  A
C1664      H1674   1.083       .  S
C1665      C1666   1.406       .  A
C1665      H1675   1.083       .  S
C1666      C2399   1.422       .  A
C1666      C2405   1.411       .  A
C1667      C2398   1.422       .  A
C1668      C1669   1.394   1_554  A
C1668      H1676   1.083       .  S
C1669      C1670   1.403       .  A
C1669      H1677   1.083       .  S
C1671      C1966   1.486   1_655  S
C1671      C1672   1.391       .  A
C1672      C1673   1.391   1_545  A
C1672      H1679   1.087       .  S
C1673      C1986   1.481       .  S
C1673      C2398   1.413       .  A
N1680      C1685   1.367   1_565  A
N1680      C2416   1.365       .  A
N1680      H1712   1.039   1_565  S
N1681      C1688   1.348       .  A
N1681      C1689   1.357       .  A
N1682      C1687   1.346   1_565  A
N1682      C1686   1.350       .  A
N1682      H1713   1.040   1_565  S
N1683      C1690   1.356       .  A
N1683      C1691   1.360       .  A
C1684      N2412   1.366       .  A
C1684      C1692   1.386       .  A
C1684      C1700   1.439       .  A
C1685      C1701   1.445       .  A
C1685      C2425   1.390       .  A
C1686      C1694   1.387       .  A
C1686      C2435   1.408       .  A
C1687      C1702   1.406       .  A
C1687      C1695   1.388   1_545  A
C1688      C1700   1.421       .  A
C1688      C1696   1.393       .  A
C1689      C1703   1.409       .  A
C1689      C1697   1.380       .  A
C1690      C1698   1.393       .  A
C1690      C1701   1.433       .  A
C1691      C1699   1.380       .  A
C1691      C1702   1.418       .  A
C1692      C1693   1.388       .  A
C1692      H1704   1.082       .  S
C1693      C2417   1.390       .  A
C1693      H2437   1.081       .  S
C1694      C1695   1.364       .  A
C1694      H1706   1.079       .  S
C1695      H1707   1.081   1_565  S
C1696      C1697   1.372       .  A
C1696      H1708   1.082       .  S
C1697      H1709   1.083       .  S
C1698      C1699   1.377       .  A
C1698      H1710   1.081       .  S
C1699      H1711   1.082       .  S
C1700      C1831   1.506       .  S
C1701      C1818   1.527       .  S
C1702      C1937   1.495       .  S
C1703      C1977   1.491       .  S
C1703      C2418   1.407       .  A
H1705      C2425   1.081       .  S
N1714      C1719   1.347       .  A
N1714      C1718   1.350       .  A
N1714      H1746   1.040       .  S
N1715      C1722   1.357       .  A
N1715      C1723   1.350       .  A
N1716      C1720   1.364       .  A
N1716      H1747   1.038       .  S
N1717      C1724   1.355       .  A
N1717      C1725   1.350       .  A
C1718      C1726   1.389       .  A
C1718      C1734   1.411       .  A
C1719      C1735   1.404   1_655  A
C1719      C1727   1.385       .  A
C1720      C1728   1.389       .  A
C1720      C1737   1.440       .  A
C1721      C1736   1.438       .  A
C1721      C1729   1.386       .  A
C1722      C1734   1.411       .  A
C1722      C1730   1.380       .  A
C1723      C1737   1.425       .  A
C1723      C1731   1.394       .  A
C1724      C1732   1.381       .  A
C1725      C1733   1.392       .  A
C1725      C1736   1.420       .  A
C1726      C1727   1.362       .  A
C1726      H1738   1.078       .  S
C1727      H1739   1.082       .  S
C1728      H1740   1.082       .  S
C1729      H1741   1.082       .  S
C1730      C1731   1.373       .  A
C1730      H1742   1.082       .  S
C1731      H1743   1.082       .  S
C1732      C1733   1.375       .  A
C1732      H1744   1.082       .  S
C1733      H1745   1.082       .  S
C1734      C1926   1.495       .  S
C1735      C1957   1.485       .  S
C1736      C1820   1.505       .  S
C1737      C1833   1.506       .  S
O1748      C1751   1.265       .  A
O1748     Cd1753   2.465       .  S
C1749      O1758   1.266       .  A
C1749      O1754   1.270       .  A
O1750      C1756   1.267       .  A
O1750     Cd1753   2.488       .  S
C1751      O1759   1.261       .  A
C1752      O1757   1.268       .  A
C1752      O1755   1.263       .  A
C1752      C1864   1.504       .  S
Cd1753     O1760   2.592       .  S
Cd1753     O1759   2.575       .  S
Cd1753     O1758   2.555       .  S
Cd1753     O1754   2.479       .  S
Cd1753     O1757   2.456       .  S
Cd1753     O1755   2.574       .  S
C1756      O1760   1.268       .  A
C1756      C1784   1.518       .  S
N1761      C1766   1.348       .  A
N1761      C1765   1.344       .  A
N1761      H1793   1.042       .  S
N1762      C1769   1.354       .  A
N1762      C1770   1.350       .  A
N1763      C1768   1.364       .  A
N1763      C2499   1.368       .  A
N1763      H1794   1.041       .  S
N1764      C1771   1.361       .  A
N1764      C1772   1.352       .  A
C1765      C1773   1.389       .  A
C1765      C1781   1.404       .  A
C1766      C1782   1.402       .  A
C1766      C1774   1.386       .  A
C1767      N2495   1.368       .  A
C1767      C1775   1.387       .  A
C1767      C1784   1.441       .  A
C1768      C1783   1.440       .  A
C1768      C1776   1.389       .  A
C1769      C2513   1.411       .  A
C1769      C1777   1.382       .  A
C1770      C1784   1.420       .  A
C1770      C1778   1.391       .  A
C1771      C1779   1.379       .  A
C1771      C1782   1.420       .  A
C1772      C1780   1.392       .  A
C1772      C1783   1.428       .  A
C1773      C1774   1.372       .  A
C1773      H1785   1.082       .  S
C1774      H1786   1.083       .  S
C1775      C2508   1.387   1_545  A
C1775      H1787   1.081       .  S
C1776      C2507   1.387       .  A
C1776      H1788   1.081       .  S
C1777      C1778   1.376       .  A
C1777      H1789   1.081       .  S
C1778      H1790   1.082       .  S
C1779      C1780   1.382       .  A
C1779      H1791   1.080       .  S
C1780      H1792   1.082       .  S
C1781      C1997   1.483       .  S
C1781      C2501   1.411       .  A
C1782      C1897   1.506       .  S
C1795      C1946   1.487       .  S
C1795      C1796   1.394       .  A
C1795      C1800   1.415       .  A
C1796      C1797   1.389       .  A
C1796      H1815   1.088       .  S
C1797      C1917   1.484       .  S
C1797      C1798   1.415       .  A
C1798      C1799   1.424       .  A
C1798      C1805   1.406       .  A
C1799      C1800   1.426       .  A
C1799      C1804   1.420   1_556  A
C1800      C1801   1.404   1_556  A
C1801      C1802   1.398       .  A
C1801      H1811   1.083   1_554  S
C1802      C1803   1.406       .  A
C1802      H1812   1.083       .  S
C1803      C1804   1.425       .  A
C1803      C1810   1.414       .  A
C1804      C1807   1.428       .  A
C1805      C1806   1.399   1_556  A
C1805      H1813   1.083       .  S
C1806      C1807   1.405       .  A
C1806      H1814   1.083       .  S
C1807      C1808   1.418       .  A
C1808      C1906   1.490       .  S
C1808      C1809   1.388       .  A
C1809      C1810   1.391       .  A
C1809      H1816   1.087       .  S
C1810      C1877   1.484       .  S
O1817      C1820   1.270       .  A
O1817     Cd1822   2.519       .  S
C1818      O1827   1.265       .  A
C1818      O1823   1.265       .  A
O1819      C1825   1.267       .  A
O1819     Cd1822   2.484       .  S
C1820      O1828   1.264       .  A
C1821      O1826   1.266       .  A
C1821      O1824   1.268       .  A
Cd1822     O1829   2.576       .  S
Cd1822     O1828   2.552       .  S
Cd1822     O1827   2.605       .  S
Cd1822     O1823   2.540       .  S
Cd1822     O1826   2.517       .  S
Cd1822     O1824   2.611       .  S
C1825      O1829   1.264       .  A
O1830      C1833   1.264       .  A
O1830     Cd1835   2.475       .  S
C1831      O1840   1.266       .  A
C1831      O1836   1.269       .  A
O1832      C1838   1.268       .  A
O1832     Cd1835   2.469       .  S
C1833      O1841   1.263       .  A
C1834      O1839   1.267       .  A
C1834      O1837   1.267       .  A
Cd1835     O1842   2.576       .  S
Cd1835     O1841   2.578       .  S
Cd1835     O1840   2.566       .  S
Cd1835     O1836   2.471       .  S
Cd1835     O1839   2.494       .  S
Cd1835     O1837   2.578       .  S
C1838      O1842   1.263       .  A
N1843      C1848   1.363       .  A
N1843      H1875   1.041       .  S
N1844      C1851   1.348       .  A
N1844      C1852   1.354       .  A
N1845      C1850   1.346       .  A
N1845      C1849   1.343       .  A
N1845      H1876   1.042       .  S
N1846      C1853   1.344       .  A
N1846      C1854   1.351       .  A
C1847      C1855   1.388       .  A
C1847      C1863   1.435       .  A
C1848      C1864   1.436       .  A
C1848      C1856   1.388       .  A
C1849      C1857   1.387       .  A
C1849      C1866   1.401       .  A
C1850      C1865   1.402       .  A
C1850      C1858   1.387       .  A
C1851      C1863   1.420       .  A
C1851      C1859   1.393       .  A
C1852      C1860   1.381       .  A
C1853      C1861   1.393       .  A
C1853      C1864   1.414       .  A
C1854      C1862   1.380       .  A
C1854      C1865   1.401       .  A
C1855      H1867   1.082       .  S
C1856      H1868   1.082       .  S
C1857      C1858   1.373       .  A
C1857      H1869   1.082       .  S
C1858      H1870   1.082       .  S
C1859      C1860   1.374       .  A
C1859      H1871   1.082       .  S
C1860      H1872   1.082       .  S
C1861      C1862   1.372       .  A
C1861      H1873   1.082       .  S
C1862      H1874   1.082       .  S
C1865      C1886   1.480       .  S
C1866      C2017   1.481       .  S
C1877      C1878   1.409       .  A
C1877      C1882   1.413       .  A
C1878      C1879   1.407       .  A
C1878     Br1890   1.926       .  S
C1879      C1880   1.409       .  A
C1879     Br1894   1.930       .  S
C1880      C1883   1.484       .  S
C1880      C1881   1.407       .  A
C1881      C1882   1.407       .  A
C1881     Br1889   1.928       .  S
C1882     Br1893   1.930       .  S
C1883      C1884   1.410       .  A
C1883      C1888   1.404       .  A
C1884      C1885   1.405       .  A
C1884     Br1895   1.923       .  S
C1885      C1886   1.409       .  A
C1885     Br1891   1.931       .  S
C1886      C1887   1.408       .  A
C1887      C1888   1.402       .  A
C1887     Br1896   1.933       .  S
C1888     Br1892   1.906       .  S
C1897      C1898   1.417       .  A
C1897      C1902   1.411       .  A
C1898      C1899   1.413       .  A
C1898     Br1910   1.928       .  S
C1899      C1900   1.410       .  A
C1899     Br1914   1.931       .  S
C1900      C1903   1.502       .  S
C1900      C1901   1.416       .  A
C1901      C1902   1.416       .  A
C1901     Br1909   1.928       .  S
C1902     Br1913   1.926       .  S
C1903      C1904   1.413       .  A
C1903      C1908   1.416       .  A
C1904      C1905   1.409       .  A
C1904     Br1915   1.932       .  S
C1905      C1906   1.413       .  A
C1905     Br1911   1.932       .  S
C1906      C1907   1.409       .  A
C1907      C1908   1.413       .  A
C1907     Br1916   1.929       .  S
C1908     Br1912   1.923       .  S
C1917      C1918   1.408       .  A
C1917      C1922   1.411       .  A
C1918      C1919   1.407       .  A
C1918     Br1930   1.929       .  S
C1919      C1920   1.413       .  A
C1919     Br1934   1.929       .  S
C1920      C1923   1.491       .  S
C1920      C1921   1.411       .  A
C1921      C1922   1.409       .  A
C1921     Br1929   1.930       .  S
C1922     Br1933   1.928       .  S
C1923      C1924   1.410       .  A
C1923      C1928   1.412       .  A
C1924      C1925   1.408       .  A
C1924     Br1935   1.928       .  S
C1925      C1926   1.408       .  A
C1925     Br1931   1.925       .  S
C1926      C1927   1.410       .  A
C1927      C1928   1.409       .  A
C1927     Br1936   1.929       .  S
C1928     Br1932   1.925       .  S
C1937      C1938   1.411       .  A
C1937      C1942   1.413       .  A
C1938      C1939   1.411       .  A
C1938     Br1950   1.924       .  S
C1939      C1940   1.407       .  A
C1939     Br1954   1.924       .  S
C1940      C1943   1.489       .  S
C1940      C1941   1.408       .  A
C1941      C1942   1.409       .  A
C1941     Br1949   1.929       .  S
C1942     Br1953   1.930       .  S
C1943      C1944   1.406       .  A
C1943      C1948   1.413       .  A
C1944      C1945   1.402       .  A
C1944     Br1955   1.929       .  S
C1945      C1946   1.409       .  A
C1945     Br1951   1.925       .  S
C1946      C1947   1.409       .  A
C1947      C1948   1.413       .  A
C1947     Br1956   1.924       .  S
C1948     Br1952   1.922       .  S
C1957      C1962   1.412   1_455  A
C1958      C1959   1.407       .  A
C1958     Br1970   1.929       .  S
C1959     Br1974   1.912       .  S
C1960      C1963   1.483       .  S
C1960      C1961   1.405   1_455  A
C1961      C1962   1.404       .  A
C1961     Br1969   1.927       .  S
C1962     Br1973   1.930       .  S
C1963      C1964   1.405       .  A
C1964      C1965   1.401       .  A
C1964     Br1975   1.927       .  S
C1965      C1966   1.410       .  A
C1965     Br1971   1.929   1_545  S
C1967      C1968   1.411       .  A
C1967     Br1976   1.927       .  S
C1968     Br1972   1.925       .  S
C1977      C1978   1.408       .  A
C1977      C2714   1.412       .  A
C1978      C1979   1.407       .  A
C1978     Br1990   1.927       .  S
C1979      C1980   1.409       .  A
C1979     Br1994   1.923       .  S
C1980      C1983   1.488       .  S
C1980      C2713   1.409       .  A
C1981      C2712   1.409       .  A
C1981      C1982   1.407       .  A
C1981     Br1989   1.924       .  S
C1982      C2709   1.411       .  A
C1982     Br1993   1.931   1_565  S
C1983      C1984   1.412       .  A
C1983      C2720   1.410       .  A
C1984      C1985   1.408       .  A
C1984     Br1995   1.927       .  S
C1985      C2718   1.406       .  A
C1985     Br1991   1.927       .  S
C1986      C2717   1.407       .  A
C1986      C1987   1.410       .  A
C1987      C1988   1.406       .  A
C1987     Br1996   1.929       .  S
C1988      C2715   1.410       .  A
C1988     Br1992   1.927       .  S
C1997      C1998   1.407       .  A
C1997      C2734   1.412       .  A
C1998      C1999   1.406       .  A
C1998     Br2010   1.929       .  S
C1999      C2000   1.413       .  A
C1999     Br2014   1.928       .  S
C2000      C2003   1.484       .  S
C2000      C2733   1.409       .  A
C2001      C2732   1.408       .  A
C2001      C2002   1.407       .  A
C2001     Br2009   1.929       .  S
C2002      C2729   1.411       .  A
C2002     Br2013   1.927       .  S
C2003      C2004   1.411       .  A
C2003      C2008   1.411       .  A
C2004      C2005   1.403       .  A
C2004     Br2747   1.933       .  S
C2005      C2006   1.409       .  A
C2005     Br2743   1.932       .  S
C2006      C2007   1.408       .  A
C2007      C2008   1.407       .  A
C2007     Br2016   1.929       .  S
C2008     Br2012   1.924       .  S
Br2011     C2737   1.932   1_565  S
Br2015     C2736   1.933   1_565  S
C2017      C2022   1.412       .  A
C2018      C2019   1.402       .  A
C2018     Br2030   1.933       .  S
C2019     Br2034   1.897       .  S
C2020      C2023   1.489       .  S
C2020      C2021   1.410       .  A
C2021      C2022   1.406       .  A
C2021     Br2029   1.929       .  S
C2022     Br2033   1.931       .  S
C2023      C2024   1.413       .  A
C2023      C2028   1.409       .  A
C2024      C2025   1.408       .  A
C2025      C2026   1.407       .  A
C2026      C2027   1.412       .  A
C2027      C2028   1.409       .  A
C2027     Br2036   1.926       .  S
C2028     Br2032   1.929       .  S
C2037      C2038   1.409       .  A
C2037      C2042   1.407       .  A
C2038      C2039   1.407       .  A
C2038     Br2050   1.930       .  S
C2039      C2040   1.413       .  A
C2039     Br2054   1.931       .  S
C2040      C2043   1.495       .  S
C2040      C2041   1.413       .  A
C2041      C2042   1.408       .  A
C2041     Br2049   1.919       .  S
C2042     Br2053   1.929       .  S
C2043      C2044   1.409       .  A
C2043      C2048   1.416       .  A
C2044      C2045   1.411       .  A
C2044     Br2055   1.928       .  S
C2045      C2046   1.413       .  A
C2045     Br2051   1.924       .  S
C2046      C2047   1.409       .  A
C2047      C2048   1.413       .  A
C2047     Br2056   1.928       .  S
C2048     Br2052   1.930       .  S
C2057      C2058   1.412       .  A
C2057      C2062   1.411       .  A
C2058      C2059   1.409       .  A
C2058     Br2070   1.928       .  S
C2059      C2060   1.409       .  A
C2059     Br2074   1.929       .  S
C2060      C2063   1.491       .  S
C2060      C2061   1.410       .  A
C2061      C2062   1.410       .  A
C2061     Br2069   1.927       .  S
C2062     Br2073   1.927       .  S
C2063      C2064   1.410       .  A
C2063      C2068   1.410       .  A
C2064      C2065   1.409       .  A
C2064     Br2075   1.928       .  S
C2065      C2066   1.409       .  A
C2065     Br2071   1.926       .  S
C2066      C2067   1.412       .  A
C2067      C2068   1.409       .  A
C2067     Br2076   1.930       .  S
C2068     Br2072   1.926       .  S
C2077      C2082   1.411       .  A
C2078      C2079   1.410       .  A
C2078     Br2090   1.927       .  S
C2079     Br2094   1.925       .  S
C2080      C2083   1.484       .  S
C2080      C2081   1.406       .  A
C2081      C2082   1.403       .  A
C2081     Br2089   1.930       .  S
C2082     Br2093   1.928       .  S
C2083      C2088   1.408       .  A
C2084      C2085   1.407       .  A
C2084     Br2095   1.920       .  S
C2085     Br2091   1.926       .  S
C2086      C2087   1.412       .  A
C2087      C2088   1.404       .  A
C2087     Br2096   1.933       .  S
C2088     Br2092   1.927       .  S
C2097      C2830   1.406       .  A
C2097      C2102   1.413       .  A
C2098      C2829   1.404       .  A
C2098      C2099   1.401       .  A
C2098     Br2110   1.929       .  S
C2099      C2832   1.409       .  A
C2099     Br2114   1.920       .  S
C2100      C2103   1.484       .  S
C2100      C2831   1.407       .  A
C2100      C2101   1.409       .  A
C2101      C2102   1.408       .  A
C2101     Br2109   1.923       .  S
C2102     Br2113   1.931       .  S
C2103      C2836   1.408       .  A
C2103      C2108   1.411       .  A
C2104      C2835   1.408       .  A
C2104      C2105   1.405       .  A
C2104     Br2115   1.924       .  S
C2105      C2838   1.409       .  A
C2105     Br2111   1.929       .  S
C2106      C2837   1.409       .  A
C2106      C2107   1.407       .  A
C2107      C2108   1.405       .  A
C2107     Br2116   1.928       .  S
C2108     Br2112   1.929       .  S
C2117      C2118   1.410       .  A
C2117      C2122   1.413       .  A
C2118      C2119   1.406       .  A
C2118     Br2130   1.927       .  S
C2119      C2120   1.405       .  A
C2119     Br2134   1.925       .  S
C2120      C2123   1.480       .  S
C2120      C2121   1.409       .  A
C2121      C2122   1.406       .  A
C2121     Br2129   1.932       .  S
C2122     Br2133   1.932       .  S
C2123      C2124   1.411       .  A
C2123      C2128   1.404       .  A
C2124      C2125   1.409       .  A
C2124     Br2135   1.919       .  S
C2125      C2126   1.407       .  A
C2125     Br2131   1.927       .  S
C2126      C2127   1.411       .  A
C2127      C2128   1.399       .  A
C2127     Br2136   1.925       .  S
C2128     Br2132   1.931       .  S
C2137      C2138   1.413       .  A
C2137      C2142   1.409       .  A
C2138      C2139   1.407       .  A
C2138     Br2150   1.926       .  S
C2139      C2140   1.408       .  A
C2139     Br2154   1.931       .  S
C2140      C2143   1.486       .  S
C2140      C2141   1.414       .  A
C2141      C2142   1.410       .  A
C2141     Br2149   1.930       .  S
C2142     Br2153   1.927       .  S
C2143      C2144   1.414       .  A
C2143      C2148   1.412       .  A
C2144      C2145   1.407       .  A
C2144     Br2155   1.924       .  S
C2145      C2146   1.406       .  A
C2145     Br2151   1.929       .  S
C2146      C2147   1.409       .  A
C2147      C2148   1.402       .  A
C2147     Br2156   1.933       .  S
C2148     Br2152   1.933       .  S
C2157      C2162   1.414       .  A
C2158      C2159   1.404       .  A
C2158     Br2170   1.933       .  S
C2159     Br2174   1.898       .  S
C2160      C2163   1.497       .  S
C2160      C2161   1.411   1_455  A
C2161      C2162   1.410       .  A
C2161     Br2169   1.928       .  S
C2162     Br2173   1.930       .  S
C2163      C2164   1.410       .  A
C2164      C2165   1.411       .  A
C2164     Br2175   1.929       .  S
C2165      C2166   1.414       .  A
C2165     Br2171   1.928       .  S
C2167      C2168   1.412       .  A
C2167     Br2176   1.926       .  S
C2168     Br2172   1.930       .  S
C2177      C2910   1.410       .  A
C2177      C2182   1.410       .  A
C2178      C2909   1.409       .  A
C2178      C2179   1.405       .  A
C2178     Br2190   1.930       .  S
C2179      C2912   1.411       .  A
C2179     Br2194   1.931       .  S
C2180      C2183   1.484       .  S
C2180      C2911   1.411       .  A
C2180      C2181   1.408       .  A
C2181      C2182   1.406       .  A
C2181     Br2189   1.928       .  S
C2182     Br2193   1.929       .  S
C2183      C2916   1.408       .  A
C2183      C2188   1.412   1_565  A
C2184      C2915   1.406       .  A
C2184      C2185   1.402       .  A
C2184     Br2195   1.905       .  S
C2185      C2918   1.408       .  A
C2185     Br2191   1.934       .  S
C2186      C2917   1.408       .  A
C2186      C2187   1.409   1_565  A
C2187      C2188   1.403       .  A
C2187     Br2196   1.932       .  S
C2188     Br2192   1.931       .  S
O2197      C2200   1.270       .  A
O2197     Cd2202   2.507       .  S
C2198      O2207   1.263       .  A
C2198      O2203   1.266       .  A
C2198      C2377   1.518       .  S
O2199      C2205   1.266       .  A
O2199     Cd2202   2.493       .  S
C2200      O2208   1.265       .  A
C2200      C2286   1.507       .  S
C2201      O2206   1.266       .  A
C2201      O2204   1.264       .  A
C2201      C2595   1.505       .  S
Cd2202     O2209   2.581       .  S
Cd2202     O2208   2.560       .  S
Cd2202     O2207   2.597       .  S
Cd2202     O2203   2.534       .  S
Cd2202     O2206   2.461       .  S
Cd2202     O2204   2.580       .  S
C2205      O2209   1.268       .  A
C2205      C2515   1.516       .  S
N2210      C2215   1.345       .  A
N2210      C2214   1.346       .  A
N2210      H2242   1.043       .  S
N2211      C2218   1.350       .  A
N2211      C2219   1.344       .  A
N2212      H2243   1.040       .  S
N2213      C2220   1.356       .  A
N2213      C2221   1.349       .  A
C2214      C2222   1.387       .  A
C2214      C2230   1.402       .  A
C2215      C2231   1.401       .  A
C2215      C2223   1.387       .  A
C2216      C2224   1.387       .  A
C2216      C2233   1.439       .  A
C2217      C2232   1.438       .  A
C2217      C2225   1.388       .  A
C2218      C2226   1.381       .  A
C2219      C2233   1.414       .  A
C2219      C2227   1.392       .  A
C2220      C2228   1.381       .  A
C2221      C2229   1.393       .  A
C2221      C2232   1.424       .  A
C2222      C2223   1.372       .  A
C2222      H2234   1.082       .  S
C2223      H2235   1.082       .  S
C2224      H2236   1.082       .  S
C2225      H2237   1.082       .  S
C2226      C2227   1.375       .  A
C2226      H2238   1.082       .  S
C2227      H2239   1.082       .  S
C2228      C2229   1.375       .  A
C2228      H2240   1.082       .  S
C2229      H2241   1.082       .  S
C2230      C2918   1.481       .  S
C2231      C2889   1.489       .  S
C2232      C2557   1.505       .  S
C2233      C2570   1.510       .  S
C2244      C2909   1.478       .  S
C2244      C2245   1.390       .  A
C2245      C2246   1.389       .  A
C2245      H2264   1.087       .  S
C2246      C2878   1.479       .  S
C2246      C2247   1.411       .  A
C2247      C2248   1.423       .  A
C2247      C2254   1.405       .  A
C2249      C2250   1.404       .  A
C2250      C2251   1.396       .  A
C2250      H2260   1.083       .  S
C2251      C2252   1.405       .  A
C2251      H2261   1.083       .  S
C2252      C2253   1.423       .  A
C2252      C2259   1.411       .  A
C2254      C2255   1.397       .  A
C2254      H2262   1.083       .  S
C2255      C2256   1.405       .  A
C2255      H2263   1.083       .  S
C2257      C2838   1.477   1_565  S
C2257      C2258   1.387       .  A
C2258      C2259   1.391       .  A
C2258      H2265   1.088       .  S
C2259      C2858   1.479       .  S
N2266      H2298   1.039   1_545  S
N2267      C2274   1.350       .  A
N2267      C2275   1.356       .  A
N2268      C2273   1.349   1_565  A
N2268      C2272   1.346       .  A
N2268      H2299   1.040       .  S
N2269      C2276   1.345       .  A
N2269      C2277   1.354       .  A
C2270      C2278   1.388   1_565  A
C2270      C2286   1.439       .  A
C2271      C2287   1.438       .  A
C2271      C2279   1.387       .  A
C2272      C2280   1.385       .  A
C2272      C2289   1.402       .  A
C2273      C2288   1.411       .  A
C2273      C2281   1.389       .  A
C2274      C2286   1.422       .  A
C2274      C2282   1.393       .  A
C2275      C2283   1.380       .  A
C2276      C2284   1.393       .  A
C2276      C2287   1.416       .  A
C2277      C2285   1.381       .  A
C2278      H2290   1.082       .  S
C2279      H2291   1.082       .  S
C2280      C2281   1.367   1_565  A
C2280      H2292   1.082       .  S
C2281      H2293   1.078       .  S
C2282      C2283   1.375       .  A
C2282      H2294   1.082       .  S
C2283      H2295   1.082       .  S
C2284      C2285   1.371       .  A
C2284      H2296   1.082       .  S
C2285      H2297   1.082       .  S
C2287      C2483   1.499       .  S
C2288      C2829   1.486       .  S
C2289      C2818   1.488       .  S
C2300      C2769   1.481       .  S
C2300      C2301   1.388       .  A
C2300      C2305   1.412       .  A
C2301      C2302   1.390   1_655  A
C2301      H2320   1.088       .  S
C2302      C2898   1.490       .  S
C2303      C2310   1.406       .  A
C2304      C2305   1.424   1_455  A
C2305      C2306   1.405       .  A
C2306      C2307   1.396       .  A
C2306      H2316   1.083       .  S
C2307      C2308   1.404   1_655  A
C2307      H2317   1.083       .  S
C2309      C2312   1.424       .  A
C2310      C2311   1.405       .  A
C2310      H2318   1.083       .  S
C2311      C2312   1.407       .  A
C2311      H2319   1.083       .  S
C2312      C2313   1.420       .  A
C2313      C2789   1.488       .  S
C2313      C2314   1.394       .  A
C2314      C2315   1.389       .  A
C2314      H2321   1.087       .  S
C2315      C2809   1.485       .  S
N2322      C2327   1.346       .  A
N2322      C2326   1.349       .  A
N2322      H2354   1.039       .  S
N2323      C2330   1.358       .  A
N2323      C2331   1.351       .  A
N2324      C2329   1.368       .  A
N2324      C2328   1.366       .  A
N2324      H2355   1.039       .  S
N2325      C2332   1.357       .  A
N2325      C2333   1.353       .  A
C2326      C2334   1.387       .  A
C2326      C2342   1.406       .  A
C2327      C2343   1.406       .  A
C2327      C2335   1.388       .  A
C2328      C2336   1.389       .  A
C2328      C2345   1.442       .  A
C2329      C2344   1.441       .  A
C2329      C2337   1.387       .  A
C2330      C2342   1.415       .  A
C2330      C2338   1.381       .  A
C2331      C2345   1.424       .  A
C2331      C2339   1.391       .  A
C2332      C2340   1.381       .  A
C2332      C2343   1.415       .  A
C2333      C2341   1.391       .  A
C2333      C2344   1.424       .  A
C2334      C2335   1.375       .  A
C2334      H2346   1.083       .  S
C2335      H2347   1.083       .  S
C2336      C2337   1.388       .  A
C2336      H2348   1.081       .  S
C2337      H2349   1.081       .  S
C2338      C2339   1.378       .  A
C2338      H2350   1.081       .  S
C2339      H2351   1.082       .  S
C2340      C2341   1.378       .  A
C2340      H2352   1.081       .  S
C2341      H2353   1.082       .  S
C2342      C2778   1.497       .  S
C2343      C2869   1.493       .  S
C2344      C2553   1.521       .  S
C2345      C2566   1.515       .  S
N2356      C2361   1.367       .  A
N2356      C2360   1.365       .  A
N2356      H2388   1.039       .  S
N2357      C2364   1.348       .  A
N2357      C2365   1.358       .  A
N2358      C2363   1.345       .  A
N2358      C2362   1.348       .  A
N2358      H2389   1.041       .  S
N2359      C2366   1.352       .  A
N2359      C2367   1.356       .  A
C2360      C2368   1.388       .  A
C2360      C2376   1.441       .  A
C2361      C2377   1.443       .  A
C2361      C2369   1.388       .  A
C2362      C2370   1.387       .  A
C2362      C2379   1.405       .  A
C2363      C2378   1.402       .  A
C2363      C2371   1.387       .  A
C2364      C2376   1.423       .  A
C2364      C2372   1.394       .  A
C2365      C2379   1.411       .  A
C2365      C2373   1.380       .  A
C2366      C2374   1.391       .  A
C2366      C2377   1.424       .  A
C2367      C2375   1.382       .  A
C2367      C2378   1.412       .  A
C2368      C2369   1.389       .  A
C2368      H2380   1.082       .  S
C2369      H2381   1.082       .  S
C2370      C2371   1.364       .  A
C2370      H2382   1.079       .  S
C2371      H2383   1.081       .  S
C2372      C2373   1.375       .  A
C2372      H2384   1.082       .  S
C2373      H2385   1.082       .  S
C2374      C2375   1.378       .  A
C2374      H2386   1.082       .  S
C2375      H2387   1.082       .  S
C2376      C2481   1.506       .  S
C2378      C2849   1.485       .  S
C2379      C2798   1.495       .  S
C2390      C2758   1.488       .  S
C2390      C2391   1.392       .  A
C2391      C2392   1.388   1_565  A
C2391      H2410   1.087       .  S
C2392      C2738   1.477       .  S
C2393      C2400   1.406       .  A
C2395      C2396   1.405       .  A
C2396      C2397   1.401   1_554  A
C2396      H2406   1.083       .  S
C2397      C2398   1.406       .  A
C2397      H2407   1.083       .  S
C2400      C2401   1.396   1_554  A
C2400      H2408   1.083       .  S
C2401      C2402   1.404       .  A
C2401      H2409   1.083       .  S
C2403      C2698   1.487   1_655  S
C2403      C2404   1.391       .  A
C2404      C2405   1.391       .  A
C2404      H2411   1.087       .  S
C2405      C2718   1.479       .  S
N2412      C2417   1.366       .  A
N2412      H2444   1.039       .  S
N2413      C2420   1.347       .  A
N2413      C2421   1.356       .  A
N2414      C2419   1.346       .  A
N2414      C2418   1.349       .  A
N2414      H2445   1.039       .  S
N2415      C2422   1.355       .  A
N2415      C2423   1.359       .  A
C2416      C2424   1.386       .  A
C2416      C2432   1.438       .  A
C2417      C2433   1.444       .  A
C2418      C2426   1.387       .  A
C2419      C2434   1.406       .  A
C2419      C2427   1.388       .  A
C2420      C2432   1.419       .  A
C2420      C2428   1.394       .  A
C2421      C2435   1.407       .  A
C2421      C2429   1.380       .  A
C2422      C2430   1.393       .  A
C2422      C2433   1.431       .  A
C2423      C2431   1.380       .  A
C2423      C2434   1.418       .  A
C2424      C2425   1.388   1_565  A
C2424      H2436   1.082       .  S
C2426      C2427   1.365       .  A
C2426      H2438   1.079       .  S
C2427      H2439   1.081       .  S
C2428      C2429   1.371       .  A
C2428      H2440   1.082       .  S
C2429      H2441   1.083       .  S
C2430      C2431   1.377       .  A
C2430      H2442   1.081       .  S
C2431      H2443   1.083       .  S
C2432      C2563   1.502       .  S
C2433      C2550   1.523       .  S
C2434      C2669   1.493       .  S
C2435      C2709   1.491       .  S
N2446      C2451   1.348       .  A
N2446      C2450   1.350       .  A
N2446      H2478   1.040       .  S
N2447      C2454   1.359       .  A
N2447      C2455   1.351       .  A
N2448      C2452   1.365       .  A
N2448      H2479   1.037       .  S
N2449      C2456   1.356       .  A
N2449      C2457   1.350       .  A
C2450      C2458   1.390       .  A
C2450      C2466   1.411       .  A
C2451      C2467   1.403   1_655  A
C2451      C2459   1.385       .  A
C2452      C2460   1.389       .  A
C2452      C2469   1.442       .  A
C2453      C2468   1.441       .  A
C2453      C2461   1.387       .  A
C2454      C2466   1.413       .  A
C2454      C2462   1.380       .  A
C2455      C2469   1.427       .  A
C2455      C2463   1.394       .  A
C2456      C2464   1.380       .  A
C2457      C2465   1.393       .  A
C2457      C2468   1.423       .  A
C2458      C2459   1.362       .  A
C2458      H2470   1.077       .  S
C2459      H2471   1.082   1_655  S
C2460      H2472   1.082       .  S
C2461      H2473   1.082       .  S
C2462      C2463   1.374       .  A
C2462      H2474   1.082       .  S
C2463      H2475   1.082       .  S
C2464      C2465   1.374       .  A
C2464      H2476   1.083       .  S
C2465      H2477   1.082       .  S
C2466      C2658   1.498       .  S
C2467      C2689   1.487       .  S
C2468      C2552   1.509       .  S
C2469      C2565   1.510       .  S
O2480      C2483   1.265       .  A
O2480     Cd2485   2.467       .  S
C2481      O2490   1.266       .  A
C2481      O2486   1.270       .  A
O2482      C2488   1.267       .  A
O2482     Cd2485   2.491       .  S
C2483      O2491   1.262       .  A
C2484      O2489   1.268       .  A
C2484      O2487   1.262       .  A
C2484      C2596   1.502       .  S
Cd2485     O2492   2.587       .  S
Cd2485     O2491   2.579       .  S
Cd2485     O2490   2.556       .  S
Cd2485     O2486   2.478       .  S
Cd2485     O2489   2.458       .  S
Cd2485     O2487   2.568       .  S
C2488      O2492   1.268       .  A
C2488      C2516   1.518       .  S
N2493      C2498   1.348       .  A
N2493      C2497   1.345       .  A
N2493      H2525   1.041       .  S
N2494      C2501   1.354       .  A
N2494      C2502   1.350       .  A
N2495      C2500   1.364   1_545  A
N2495      H2526   1.041       .  S
N2496      C2503   1.361       .  A
N2496      C2504   1.352       .  A
C2497      C2505   1.388       .  A
C2497      C2513   1.404   1_565  A
C2498      C2514   1.404       .  A
C2498      C2506   1.386       .  A
C2499      C2507   1.387       .  A
C2499      C2516   1.441       .  A
C2500      C2515   1.442       .  A
C2500      C2508   1.389       .  A
C2501      C2509   1.382       .  A
C2502      C2516   1.421       .  A
C2502      C2510   1.391       .  A
C2503      C2511   1.379       .  A
C2503      C2514   1.420       .  A
C2504      C2512   1.393       .  A
C2504      C2515   1.430       .  A
C2505      C2506   1.372       .  A
C2505      H2517   1.082       .  S
C2506      H2518   1.083       .  S
C2507      H2519   1.081       .  S
C2508      H2520   1.081       .  S
C2509      C2510   1.377       .  A
C2509      H2521   1.081       .  S
C2510      H2522   1.082       .  S
C2511      C2512   1.381       .  A
C2511      H2523   1.080       .  S
C2512      H2524   1.082       .  S
C2513      C2729   1.483       .  S
C2514      C2629   1.506       .  S
C2527      C2678   1.487       .  S
C2527      C2528   1.394       .  A
C2527      C2532   1.415       .  A
C2528      C2529   1.389       .  A
C2528      H2547   1.087       .  S
C2529      C2649   1.485       .  S
C2529      C2530   1.415       .  A
C2530      C2531   1.425       .  A
C2530      C2537   1.405       .  A
C2531      C2532   1.426       .  A
C2531      C2536   1.420   1_556  A
C2532      C2533   1.404       .  A
C2533      C2534   1.398   1_556  A
C2533      H2543   1.083       .  S
C2534      C2535   1.406       .  A
C2534      H2544   1.083       .  S
C2535      C2536   1.425       .  A
C2535      C2542   1.413       .  A
C2536      C2539   1.428       .  A
C2537      C2538   1.400   1_556  A
C2537      H2545   1.083       .  S
C2538      C2539   1.405       .  A
C2538      H2546   1.083       .  S
C2539      C2540   1.418       .  A
C2540      C2638   1.490       .  S
C2540      C2541   1.388       .  A
C2541      C2542   1.392       .  A
C2541      H2548   1.087       .  S
C2542      C2609   1.484       .  S
O2549      C2552   1.270       .  A
O2549     Cd2554   2.503       .  S
C2550      O2559   1.264       .  A
C2550      O2555   1.264       .  A
O2551      C2557   1.266       .  A
O2551     Cd2554   2.482       .  S
C2552      O2560   1.265       .  A
C2553      O2558   1.266       .  A
C2553      O2556   1.268       .  A
Cd2554     O2561   2.573       .  S
Cd2554     O2560   2.562       .  S
Cd2554     O2559   2.601       .  S
Cd2554     O2555   2.530       .  S
Cd2554     O2558   2.510       .  S
Cd2554     O2556   2.604       .  S
C2557      O2561   1.264       .  A
O2562      C2565   1.265       .  A
O2562     Cd2567   2.489       .  S
C2563      O2572   1.264       .  A
C2563      O2568   1.269       .  A
O2564      C2570   1.269       .  A
O2564     Cd2567   2.471       .  S
C2565      O2573   1.263       .  A
C2566      O2571   1.268       .  A
C2566      O2569   1.267       .  A
Cd2567     O2574   2.587       .  S
Cd2567     O2573   2.586       .  S
Cd2567     O2572   2.552       .  S
Cd2567     O2568   2.474       .  S
Cd2567     O2571   2.495       .  S
Cd2567     O2569   2.576       .  S
C2570      O2574   1.264       .  A
N2575      C2580   1.362       .  A
N2575      H2607   1.041       .  S
N2576      C2583   1.349       .  A
N2576      C2584   1.354       .  A
N2577      C2582   1.346       .  A
N2577      C2581   1.344       .  A
N2577      H2608   1.042       .  S
N2578      C2585   1.344       .  A
N2578      C2586   1.351       .  A
C2579      C2587   1.388       .  A
C2579      C2595   1.435       .  A
C2580      C2596   1.436       .  A
C2580      C2588   1.388       .  A
C2581      C2589   1.387       .  A
C2581      C2598   1.401       .  A
C2582      C2597   1.403       .  A
C2582      C2590   1.387       .  A
C2583      C2595   1.421       .  A
C2583      C2591   1.393       .  A
C2584      C2592   1.380       .  A
C2585      C2593   1.393       .  A
C2585      C2596   1.414       .  A
C2586      C2594   1.381       .  A
C2586      C2597   1.403       .  A
C2587      H2599   1.082       .  S
C2588      H2600   1.082       .  S
C2589      C2590   1.374       .  A
C2589      H2601   1.082       .  S
C2590      H2602   1.082       .  S
C2591      C2592   1.373       .  A
C2591      H2603   1.082       .  S
C2592      H2604   1.082       .  S
C2593      C2594   1.373       .  A
C2593      H2605   1.082       .  S
C2594      H2606   1.082       .  S
C2597      C2618   1.482       .  S
C2598      C2749   1.482       .  S
C2609      C2610   1.409       .  A
C2609      C2614   1.413       .  A
C2610      C2611   1.407       .  A
C2610     Br2622   1.926       .  S
C2611      C2612   1.409       .  A
C2611     Br2626   1.930       .  S
C2612      C2615   1.484       .  S
C2612      C2613   1.407       .  A
C2613      C2614   1.407       .  A
C2613     Br2621   1.928       .  S
C2614     Br2625   1.929       .  S
C2615      C2616   1.409       .  A
C2615      C2620   1.404       .  A
C2616      C2617   1.405       .  A
C2616     Br2627   1.925       .  S
C2617      C2618   1.410       .  A
C2617     Br2623   1.931       .  S
C2618      C2619   1.409       .  A
C2619      C2620   1.402       .  A
C2619     Br2628   1.933       .  S
C2620     Br2624   1.905       .  S
C2629      C2630   1.416       .  A
C2629      C2634   1.411       .  A
C2630      C2631   1.413       .  A
C2630     Br2642   1.929       .  S
C2631      C2632   1.411       .  A
C2631     Br2646   1.931       .  S
C2632      C2635   1.504       .  S
C2632      C2633   1.417       .  A
C2633      C2634   1.417       .  A
C2633     Br2641   1.928       .  S
C2634     Br2645   1.927       .  S
C2635      C2636   1.414       .  A
C2635      C2640   1.417       .  A
C2636      C2637   1.409       .  A
C2636     Br2647   1.932       .  S
C2637      C2638   1.411       .  A
C2637     Br2643   1.931       .  S
C2638      C2639   1.408       .  A
C2639      C2640   1.414       .  A
C2639     Br2648   1.929       .  S
C2640     Br2644   1.923       .  S
C2649      C2650   1.408       .  A
C2649      C2654   1.411       .  A
C2650      C2651   1.409       .  A
C2650     Br2662   1.929       .  S
C2651      C2652   1.413       .  A
C2651     Br2666   1.928       .  S
C2652      C2655   1.494       .  S
C2652      C2653   1.411       .  A
C2653      C2654   1.409       .  A
C2653     Br2661   1.929       .  S
C2654     Br2665   1.928       .  S
C2655      C2656   1.410       .  A
C2655      C2660   1.412       .  A
C2656      C2657   1.409       .  A
C2656     Br2667   1.927       .  S
C2657      C2658   1.408       .  A
C2657     Br2663   1.925       .  S
C2658      C2659   1.411       .  A
C2659      C2660   1.411       .  A
C2659     Br2668   1.929       .  S
C2660     Br2664   1.927       .  S
C2669      C2670   1.410       .  A
C2669      C2674   1.413       .  A
C2670      C2671   1.410       .  A
C2670     Br2682   1.924       .  S
C2671      C2672   1.407       .  A
C2671     Br2686   1.923       .  S
C2672      C2675   1.488       .  S
C2672      C2673   1.408       .  A
C2673      C2674   1.408       .  A
C2673     Br2681   1.930       .  S
C2674     Br2685   1.931       .  S
C2675      C2676   1.406       .  A
C2675      C2680   1.412       .  A
C2676      C2677   1.401       .  A
C2676     Br2687   1.930       .  S
C2677      C2678   1.410       .  A
C2677     Br2683   1.925       .  S
C2678      C2679   1.410       .  A
C2679      C2680   1.413       .  A
C2679     Br2688   1.924       .  S
C2680     Br2684   1.922       .  S
C2689      C2694   1.412   1_455  A
C2690      C2691   1.408       .  A
C2690     Br2702   1.928       .  S
C2691     Br2706   1.914       .  S
C2692      C2695   1.486       .  S
C2692      C2693   1.406   1_455  A
C2693      C2694   1.405       .  A
C2693     Br2701   1.926       .  S
C2694     Br2705   1.930       .  S
C2695      C2696   1.406       .  A
C2696      C2697   1.402       .  A
C2696     Br2707   1.927       .  S
C2697      C2698   1.411       .  A
C2697     Br2703   1.929       .  S
C2699      C2700   1.411       .  A
C2699     Br2708   1.927       .  S
C2700     Br2704   1.925       .  S
C2709      C2710   1.407       .  A
C2710      C2711   1.407       .  A
C2710     Br2722   1.927       .  S
C2711      C2712   1.410       .  A
C2711     Br2726   1.923       .  S
C2712      C2715   1.489       .  S
C2713      C2714   1.407       .  A
C2713     Br2721   1.924       .  S
C2714     Br2725   1.931       .  S
C2715      C2716   1.412       .  A
C2716      C2717   1.408       .  A
C2716     Br2727   1.927       .  S
C2717     Br2723   1.927   1_565  S
C2718      C2719   1.409       .  A
C2719      C2720   1.405       .  A
C2719     Br2728   1.929       .  S
C2720     Br2724   1.926       .  S
C2729      C2730   1.407       .  A
C2730      C2731   1.406       .  A
C2730     Br2742   1.929       .  S
C2731      C2732   1.412       .  A
C2731     Br2746   1.929       .  S
C2732      C2735   1.482       .  S
C2733      C2734   1.408       .  A
C2733     Br2741   1.929       .  S
C2734     Br2745   1.927       .  S
C2735      C2736   1.410       .  A
C2735      C2740   1.410       .  A
C2736      C2737   1.402       .  A
C2737      C2738   1.409       .  A
C2738      C2739   1.408       .  A
C2739      C2740   1.407       .  A
C2739     Br2748   1.930       .  S
C2740     Br2744   1.924       .  S
C2749      C2754   1.412       .  A
C2750      C2751   1.402       .  A
C2750     Br2762   1.933       .  S
C2751     Br2766   1.896       .  S
C2752      C2755   1.489       .  S
C2752      C2753   1.410       .  A
C2753      C2754   1.406       .  A
C2753     Br2761   1.928       .  S
C2754     Br2765   1.931       .  S
C2755      C2756   1.412       .  A
C2755      C2760   1.408       .  A
C2756      C2757   1.409       .  A
C2757      C2758   1.409       .  A
C2758      C2759   1.414       .  A
C2759      C2760   1.409       .  A
C2759     Br2768   1.927   1_565  S
C2760     Br2764   1.930       .  S
C2769      C2770   1.409       .  A
C2769      C2774   1.407       .  A
C2770      C2771   1.407       .  A
C2770     Br2782   1.930       .  S
C2771      C2772   1.414       .  A
C2771     Br2786   1.932       .  S
C2772      C2775   1.495       .  S
C2772      C2773   1.413       .  A
C2773      C2774   1.408       .  A
C2773     Br2781   1.920       .  S
C2774     Br2785   1.930       .  S
C2775      C2776   1.408       .  A
C2775      C2780   1.416       .  A
C2776      C2777   1.410       .  A
C2776     Br2787   1.929       .  S
C2777      C2778   1.413       .  A
C2777     Br2783   1.924       .  S
C2778      C2779   1.409       .  A
C2779      C2780   1.413       .  A
C2779     Br2788   1.928       .  S
C2780     Br2784   1.930       .  S
C2789      C2790   1.412       .  A
C2789      C2794   1.411       .  A
C2790      C2791   1.409       .  A
C2790     Br2802   1.927       .  S
C2791      C2792   1.408       .  A
C2791     Br2806   1.928       .  S
C2792      C2795   1.493       .  S
C2792      C2793   1.410       .  A
C2793      C2794   1.411       .  A
C2793     Br2801   1.926       .  S
C2794     Br2805   1.927       .  S
C2795      C2796   1.410       .  A
C2795      C2800   1.410       .  A
C2796      C2797   1.409       .  A
C2796     Br2807   1.926       .  S
C2797      C2798   1.408       .  A
C2797     Br2803   1.925       .  S
C2798      C2799   1.413       .  A
C2799      C2800   1.410       .  A
C2799     Br2808   1.930       .  S
C2800     Br2804   1.925       .  S
C2809      C2814   1.411       .  A
C2810      C2811   1.411       .  A
C2810     Br2822   1.928       .  S
C2811     Br2826   1.924       .  S
C2812      C2815   1.486       .  S
C2812      C2813   1.406       .  A
C2813      C2814   1.403       .  A
C2813     Br2821   1.929       .  S
C2814     Br2825   1.929       .  S
C2815      C2820   1.407       .  A
C2816      C2817   1.409       .  A
C2816     Br2827   1.921       .  S
C2817     Br2823   1.925       .  S
C2818      C2819   1.412       .  A
C2819      C2820   1.405       .  A
C2819     Br2828   1.932       .  S
C2820     Br2824   1.927       .  S
C2829      C2834   1.412       .  A
C2830      C2831   1.403       .  A
C2830     Br2842   1.927       .  S
C2831     Br2846   1.921       .  S
C2832      C2835   1.483       .  S
C2832      C2833   1.410       .  A
C2833      C2834   1.407       .  A
C2833     Br2841   1.925   1_545  S
C2834     Br2845   1.931   1_545  S
C2835      C2840   1.411       .  A
C2836      C2837   1.405       .  A
C2836     Br2847   1.925       .  S
C2837     Br2843   1.929       .  S
C2838      C2839   1.407       .  A
C2839      C2840   1.405       .  A
C2839     Br2848   1.927   1_545  S
C2840     Br2844   1.930   1_545  S
C2849      C2850   1.410       .  A
C2849      C2854   1.412       .  A
C2850      C2851   1.406       .  A
C2850     Br2862   1.926       .  S
C2851      C2852   1.406       .  A
C2851     Br2866   1.926       .  S
C2852      C2855   1.479       .  S
C2852      C2853   1.409       .  A
C2853      C2854   1.405       .  A
C2853     Br2861   1.932       .  S
C2854     Br2865   1.932       .  S
C2855      C2856   1.410       .  A
C2855      C2860   1.403       .  A
C2856      C2857   1.408       .  A
C2856     Br2867   1.917       .  S
C2857      C2858   1.407       .  A
C2857     Br2863   1.928       .  S
C2858      C2859   1.412       .  A
C2859      C2860   1.400       .  A
C2859     Br2868   1.926       .  S
C2860     Br2864   1.930       .  S
C2869      C2870   1.413       .  A
C2869      C2874   1.408       .  A
C2870      C2871   1.408       .  A
C2870     Br2882   1.927       .  S
C2871      C2872   1.409       .  A
C2871     Br2886   1.930       .  S
C2872      C2875   1.489       .  S
C2872      C2873   1.414       .  A
C2873      C2874   1.410       .  A
C2873     Br2881   1.929       .  S
C2874     Br2885   1.927       .  S
C2875      C2876   1.414       .  A
C2875      C2880   1.412       .  A
C2876      C2877   1.408       .  A
C2876     Br2887   1.923       .  S
C2877      C2878   1.406       .  A
C2877     Br2883   1.929       .  S
C2878      C2879   1.410       .  A
C2879      C2880   1.404       .  A
C2879     Br2888   1.933       .  S
C2880     Br2884   1.933       .  S
C2889      C2894   1.414       .  A
C2890      C2891   1.404       .  A
C2890     Br2902   1.934       .  S
C2891     Br2906   1.901       .  S
C2892      C2895   1.498       .  S
C2892      C2893   1.411   1_455  A
C2893      C2894   1.410       .  A
C2893     Br2901   1.929       .  S
C2894     Br2905   1.931       .  S
C2895      C2896   1.410       .  A
C2896      C2897   1.411       .  A
C2896     Br2907   1.930       .  S
C2897      C2898   1.414       .  A
C2897     Br2903   1.928       .  S
C2899      C2900   1.412       .  A
C2899     Br2908   1.927       .  S
C2900     Br2904   1.930       .  S
C2909      C2914   1.409       .  A
C2910      C2911   1.406       .  A
C2910     Br2922   1.930       .  S
C2911     Br2926   1.932       .  S
C2912      C2915   1.484       .  S
C2912      C2913   1.408       .  A
C2913      C2914   1.405       .  A
C2913     Br2921   1.927       .  S
C2914     Br2925   1.930       .  S
C2915      C2920   1.411       .  A
C2916      C2917   1.403       .  A
C2916     Br2927   1.910       .  S
C2917     Br2923   1.934       .  S
C2918      C2919   1.410       .  A
C2919      C2920   1.404       .  A
C2919     Br2928   1.931       .  S
C2920     Br2924   1.931       .  S
