geometry optimzed in LAMMPS
_audit_creation_date              2020-11-30 
_audit_creation_method            'lammps2cif' 
_symmetry_space_group_name_H-M    'P1' 
_symmetry_Int_Tables_number       1 
_symmetry_cell_setting            triclinic 
loop_ 
_symmetry_equiv_pos_as_xyz 
  x,y,z 
_cell_length_a                    35.87959717 
_cell_length_b                    35.02260319003051 
_cell_length_c                    63.74817514502969 
_cell_angle_alpha                 91.11129002389308 
_cell_angle_beta                  89.56929934713675 
_cell_angle_gamma                 121.2771188406452 
loop_ 
_atom_site_label 
_atom_site_type_symbol 
_atom_site_fract_x 
_atom_site_fract_y 
_atom_site_fract_z 
_atom_site_charge 
C1          C  0.21310390  0.24190473  0.04206250     0.85700
C2          C  0.17982493  0.20719210  0.05709714    -0.54500
C3          C  0.19818525  0.19524965  0.07246044     0.08700
C4          C  0.24902791  0.21889890  0.07071284     0.19600
C5          C  0.24580668  0.28067026  0.05639049    -0.55200
C6          C  0.26295130  0.26832772  0.07200009     0.08800
C7          C  0.23782403  0.22018537  0.03356440    -0.54800
C8          C  0.25968006  0.21091914  0.04802830     0.09300
H9          H  0.14559094  0.19690504  0.05703909     0.13800
H10         H  0.26446175  0.20937752  0.08288334    -0.00400
H11         H  0.25212132  0.31436666  0.05515444     0.14200
H12         H  0.23122650  0.20413779  0.01838842     0.13900
C13         C  0.03604170  0.24425976  0.04282821     0.85700
C14         C  0.02984359  0.28054470  0.05359977    -0.54500
C15         C  0.99812160  0.26503940  0.06873225     0.08700
C16         C  0.97350510  0.21408086  0.07055206     0.19600
C17         C  0.04271116  0.22050451  0.06098163    -0.55200
C18         C  0.01065848  0.20527183  0.07580937     0.08800
C19         C  0.99056750  0.21006944  0.03403449    -0.54800
C20         C  0.46004169  0.20071952  0.04761343     0.09300
H21         H  0.05181540  0.31601178  0.05109829     0.13800
H22         H  0.44955163  0.20475598  0.08179596    -0.00400
H23         H  0.07324957  0.22172570  0.06348017     0.14200
H24         H  0.98461255  0.19899834  0.01785911     0.13900
C25         C  0.22285945  0.42886858  0.04725783     0.85700
C26         C  0.26073983  0.43971634  0.06267069    -0.54500
C27         C  0.27387414  0.47817314  0.07473146     0.08700
C28         C  0.25454761  0.00342293  0.07014073     0.19600
C29         C  0.18726978  0.42711766  0.06179461    -0.55200
C30         C  0.20092979  0.46498453  0.07378632     0.08800
C31         C  0.24107811  0.47172496  0.03487185    -0.54800
C32         C  0.25791014  0.01153526  0.04655221     0.09300
H33         H  0.27476902  0.41893355  0.06409877     0.13800
H34         H  0.26497160  0.03433037  0.07962617    -0.00400
H35         H  0.15647864  0.39638914  0.06459090     0.14200
H36         H  0.25085242  0.47302558  0.01880647     0.13900
O37         O  0.22547816  0.38787022  0.98461348    -0.82600
C38         C  0.07370138  0.26348565  0.02711012     0.96800
O39         O  0.09871953  0.30539137  0.02574855    -0.71700
O40         O  0.17196271  0.38303444  0.02053124    -0.75300
Al41       Al  0.13101400  0.33719432  0.00169582     1.49000
C42         C  0.20437182  0.38976276  0.03129279     0.92100
O43         O  0.22216053  0.29356895  0.01575096    -0.81500
O44         O  0.17012779  0.24262965  0.97924912    -0.75000
Al45       Al  0.21761936  0.33722488  0.00018248     1.90100
O46         O  0.15478977  0.24002281  0.02171961    -0.74100
O47         O  0.09468642  0.24571806  0.97262455    -0.74000
O48         O  0.08000019  0.23769831  0.01542609    -0.79600
O49         O  0.08276197  0.29778908  0.98419342    -0.77800
O50         O  0.15881739  0.30709303  0.99952233    -1.14000
O51         O  0.15949954  0.37348732  0.97766560    -0.73100
C52         C  0.20035896  0.39759808  0.97540599     0.97600
C53         C  0.19524358  0.25879134  0.02543291     0.94000
Al54       Al  0.12787172  0.24708783  0.99722516     1.55600
O55         O  0.22221072  0.36744825  0.02708487    -0.77800
C56         C  0.07104190  0.26306353  0.97318017     0.98100
C57         C  0.20680998  0.26984065  0.97105501     0.93000
O58         O  0.22308981  0.31143084  0.97397318    -0.83100
C59         C  0.20344936  0.22343681  0.19321314     0.79500
N60         N  0.18061118  0.21056952  0.17474328    -0.78800
C61         C  0.20185561  0.21311954  0.15653512     0.81900
N62         N  0.24445278  0.22613479  0.15720899    -0.78800
C63         C  0.26632820  0.23483344  0.17553823     0.82000
N64         N  0.24587472  0.23541812  0.19328505    -0.80500
C65         C  0.17519506  0.51396449  0.19352870     0.79500
N66         N  0.20772206  0.55745687  0.19347588    -0.78800
C67         C  0.22964684  0.57665058  0.17567034     0.81900
N68         N  0.21767823  0.55200816  0.15776876    -0.78800
C69         C  0.18497889  0.50885464  0.15733892     0.82000
N70         N  0.16391801  0.48897726  0.17541784    -0.80500
C71         C  0.02924652  0.37896846  0.18194467     0.79500
N72         N  0.02099566  0.35055439  0.16523944    -0.78800
C73         C  0.01682399  0.36306961  0.14562293     0.81900
N74         N  0.02114785  0.40333915  0.14290947    -0.78800
C75         C  0.02962623  0.43188433  0.15926564     0.82000
N76         N  0.03325317  0.41911925  0.17873195    -0.80500
C77         C  0.33433610  0.37543958  0.18685018     0.79500
N78         N  0.31224683  0.34896913  0.17006186    -0.78800
C79         C  0.32993926  0.36066890  0.15064823     0.81900
N80         N  0.36882582  0.39895726  0.14806927    -0.78800
C81         C  0.39116086  0.42595037  0.16461784     0.82000
N82         N  0.37392693  0.41333235  0.18412193    -0.80500
C83         C  0.36607335  0.44697104  0.29692556     0.85700
C84         C  0.35042392  0.40527113  0.28282753    -0.54500
C85         C  0.31093526  0.38984624  0.27275284     0.08700
C86         C  0.29005873  0.41745000  0.27938515     0.19600
C87         C  0.36462078  0.48117782  0.28268031    -0.55200
C88         C  0.32564418  0.46547162  0.27240868     0.08800
C89         C  0.32925127  0.43458008  0.31232658    -0.54800
C90         C  0.28893911  0.41711378  0.30381977     0.09300
H91         H  0.37343331  0.39537398  0.27849835     0.13800
H92         H  0.25708301  0.40545520  0.27304385    -0.00400
H93         H  0.39380158  0.51243456  0.27856643     0.14200
H94         H  0.33540414  0.44160569  0.32877927     0.13900
C95         C  0.07281642  0.13288038  0.29924138     0.85700
C96         C  0.09490078  0.17132161  0.31536157    -0.54500
C97         C  0.11508090  0.21306288  0.30724852     0.08700
C98         C  0.11534879  0.21241391  0.28346084     0.19600
C99         C  0.04497376  0.14382580  0.28521229    -0.55200
C100        C  0.06743832  0.18560376  0.27674005     0.08800
C101        C  0.11029838  0.13993818  0.28495165    -0.54800
C102        C  0.13237228  0.18168054  0.27631941     0.09300
H103        H  0.09916039  0.16530126  0.33135197     0.13800
H104        H  0.13373236  0.24689087  0.27738076    -0.00400
H105        H  0.01222301  0.11841573  0.28033943     0.14200
H106        H  0.11524048  0.11304064  0.28000606     0.13900
C107        C  0.09352546  0.39082133  0.30175808     0.85700
C108        C  0.06411720  0.35862234  0.28385509    -0.54500
C109        C  0.04738338  0.37714701  0.27071980     0.08700
C110        C  0.06171533  0.42574198  0.27719684     0.19600
C111        C  0.12813915  0.43255648  0.29026503    -0.55200
C112        C  0.11176144  0.44894718  0.27622904     0.08800
C113        C  0.06502341  0.40550958  0.31296302    -0.54800
C114        C  0.04921059  0.42522566  0.30058253     0.09300
H115        H  0.06096178  0.32654250  0.28055722     0.13800
H116        H  0.04924027  0.44192208  0.26699363    -0.00400
H117        H  0.16266494  0.44478970  0.29152916     0.14200
H118        H  0.05833307  0.40124279  0.32956543     0.13900
O119        O  0.24195582  0.41547509  0.36236512    -0.82600
C120        C  0.13058978  0.25453860  0.32010701     0.96800
O121        O  0.17083244  0.28319599  0.32165273    -0.71700
O122        O  0.24428774  0.36223364  0.32918639    -0.75300
Al123      Al  0.19657694  0.31807044  0.34666188     1.49000
C124        C  0.24927849  0.39389704  0.31770735     0.92100
O125        O  0.14756010  0.40410443  0.32774918    -0.81500
O126        O  0.09737807  0.35306756  0.36169591    -0.75000
Al127      Al  0.19154857  0.40355337  0.34514539     1.90100
O128        O  0.10079606  0.33383101  0.31963161    -0.74100
O129        O  0.10400127  0.28225355  0.37163131    -0.74000
O130        O  0.10295916  0.26043627  0.32986848    -0.79600
O131        O  0.15508944  0.26782148  0.36361513    -0.77800
O132        O  0.16484847  0.34401447  0.34588123    -1.14000
O133        O  0.22683082  0.34919625  0.37200194    -0.73100
C134        C  0.25143541  0.39121323  0.37298432     0.97600
C135        C  0.11524242  0.37489319  0.31695488     0.94000
Al136      Al  0.10645848  0.31040544  0.34575296     1.55600
O137        O  0.22319433  0.40787527  0.31956537    -0.77800
C138        C  0.11978364  0.25747917  0.37300404     0.98100
C139        C  0.12206675  0.38941939  0.37164398     0.93000
O140        O  0.16312972  0.40784552  0.37023604    -0.83100
C141        C  0.01600609  0.22476295  0.19936755     0.79500
N142        N  0.02490807  0.21530434  0.17989188    -0.78800
C143        C  0.51298551  0.23115242  0.16308737     0.81900
N144        N  0.48693328  0.24834684  0.16577854    -0.78800
C145        C  0.47716430  0.25695404  0.18539817     0.82000
N146        N  0.49489705  0.24913788  0.20201871    -0.80500
C147        C  0.33243048  0.54965989  0.19239975     0.79500
N148        N  0.33099011  0.53241423  0.17270830    -0.78800
C149        C  0.34444428  0.06093053  0.15446174     0.81900
N150        N  0.35565245  0.10439741  0.15718708    -0.78800
C151        C  0.35689211  0.12214759  0.17655711     0.82000
N152        N  0.34659857  0.09546638  0.19347633    -0.80500
C153        C  0.45010665  0.36332880  0.63245448     0.85700
C154        C  0.47763066  0.36403081  0.61379158    -0.54500
C155        C  0.45722169  0.32591181  0.60158212     0.08700
C156        C  0.41099300  0.29038396  0.60941679     0.19600
C157        C  0.40692333  0.35365874  0.62221449    -0.55200
C158        C  0.38705899  0.31635323  0.60943279     0.08800
C159        C  0.43815611  0.32068197  0.64428686    -0.54800
C160        C  0.41581424  0.28189370  0.63280070     0.09300
H161        H  0.01055956  0.39174961  0.61045739     0.13800
H162        H  0.39536409  0.25952023  0.59951816    -0.00400
H163        H  0.39605375  0.37738133  0.62299535     0.14200
H164        H  0.44487260  0.32105410  0.66085758     0.13900
C165        C  0.45641618  0.05702962  0.63510556     0.85700
C166        C  0.41965280  0.02359331  0.62039779    -0.54500
C167        C  0.40362086  0.04246660  0.60769162     0.08700
C168        C  0.42392822  0.09268250  0.61174584     0.19600
C169        C  0.49032354  0.09280225  0.62075912    -0.55200
C170        C  0.47351448  0.11100695  0.60784086     0.08800
C171        C  0.43835914  0.08173845  0.64734837    -0.54800
C172        C  0.41918650  0.09869441  0.63554488     0.09300
H173        H  0.41414491  0.49112042  0.61794001     0.13800
H174        H  0.40887402  0.10693351  0.60190413    -0.00400
H175        H  0.02366725  0.10387082  0.62043450     0.14200
H176        H  0.44335198  0.08837162  0.66387179     0.13900
C177        C  0.13125278  0.04540712  0.63517408     0.85700
C178        C  0.13460616  0.07125393  0.61498466    -0.54500
C179        C  0.16663572  0.07538175  0.60111886     0.08700
C180        C  0.19062288  0.05221581  0.60898430     0.19600
C181        C  0.12421237  0.00076035  0.62675029    -0.55200
C182        C  0.15227617  0.00336372  0.61186995     0.08800
C183        C  0.17778860  0.07112104  0.64390379    -0.54800
C184        C  0.20904069  0.07366353  0.63077061     0.09300
H185        H  0.11116414  0.08079078  0.61111545     0.13800
H186        H  0.21705171  0.05504240  0.59875024    -0.00400
H187        H  0.09352019  0.46870039  0.62857266     0.14200
H188        H  0.18656966  0.09108634  0.65813715     0.13900
O189        O  0.08560102  0.05279164  0.69669545    -0.82600
C190        C  0.47043662  0.40464195  0.64681166     0.96800
O191        O  0.51012524  0.42450205  0.65226432    -0.71700
O192        O  0.08553554  0.49920888  0.66264558    -0.75300
Al193      Al  0.03496108  0.45693822  0.67805503     1.49000
C194        C  0.09547855  0.03350989  0.65163983     0.92100
O195        O  0.00560001  0.06170332  0.66166874    -0.81500
O196        O  0.44327415  0.50150818  0.69176118    -0.75000
Al197      Al  0.04074945  0.04909195  0.67890350     1.90100
O198        O  0.45652631  0.49560573  0.64953270    -0.74100
O199        O  0.43735784  0.42325204  0.69653201    -0.74000
O200        O  0.44553064  0.41615504  0.65489060    -0.79600
O201        O  0.98884438  0.40738974  0.69322412    -0.77800
O202        O  0.00910619  0.48910277  0.67678483    -1.14000
O203        O  0.06398754  0.48357148  0.70444344    -0.73100
C204        C  0.09162216  0.02537112  0.70641832     0.97600
C205        C  0.47343199  0.03531130  0.64900995     0.94000
Al206      Al  0.45109432  0.46181233  0.67349226     1.55600
O207        O  0.07556578  0.05443819  0.65416942    -0.77800
C208        C  0.45204682  0.39816417  0.70031380     0.98100
C209        C  0.46692987  0.03281662  0.70328088     0.93000
O210        O  0.00838582  0.05033700  0.70312714    -0.83100
C211        C  0.07908527  0.39467925  0.53520190     0.79500
N212        N  0.07999212  0.41649312  0.51736187    -0.78800
C213        C  0.08285428  0.40028064  0.49806631     0.81900
N214        N  0.08859200  0.36495355  0.49706184    -0.78800
C215        C  0.09483541  0.34808191  0.51467958     0.82000
N216        N  0.08302598  0.35822670  0.53320139    -0.80500
C217        C  0.33962539  0.96340658  0.52581719     0.79500
N218        N  0.35658812  0.98330800  0.50712386    -0.78800
C219        C  0.33570581  0.46654792  0.48934418     0.81900
N220        N  0.29430153  0.43097999  0.48997565    -0.78800
C221        C  0.27607501  0.41124490  0.50827801     0.82000
N222        N  0.29883553  0.92709932  0.52638287    -0.80500
C223        C  0.45509551  0.11427949  0.52459146     0.79500
N224        N  0.41097352  0.09381660  0.52414562    -0.78800
C225        C  0.38894459  0.08250177  0.50565680     0.81900
N226        N  0.90888201  0.08858409  0.48753950    -0.78800
C227        C  0.95282202  0.11013169  0.48767170     0.82000
N228        N  0.47765164  0.12424244  0.50632474    -0.80500
C229        C  0.95598459  0.28518896  0.47915459     0.79500
N230        N  0.97341583  0.30765366  0.49765124    -0.78800
C231        C  0.95818966  0.28573802  0.51608760     0.81900
N232        N  0.92595012  0.24226701  0.51578306    -0.78800
C233        C  0.90832901  0.21980943  0.49752833     0.82000
N234        N  0.92371366  0.24157799  0.47924938    -0.80500
C235        C  0.32105787  0.29797431  0.52602045     0.79500
N236        N  0.32647552  0.32983380  0.51201725    -0.78800
C237        C  0.32178617  0.31970884  0.49091855     0.81900
N238        N  0.31254826  0.27888856  0.48412405    -0.78800
C239        C  0.30775949  0.24762587  0.49770040     0.82000
N240        N  0.31192831  0.25759913  0.51841676    -0.80500
C241        C  0.16015129  0.09330342  0.51132038     0.79500
N242        N  0.14152016  0.11326839  0.50142249    -0.78800
C243        C  0.15292126  0.12596581  0.48121482     0.81900
N244        N  0.18361755  0.12077021  0.47140238    -0.78800
C245        C  0.20281886  0.10174928  0.48124055     0.82000
N246        N  0.18944215  0.08699950  0.50089018    -0.80500
C247        C  0.05342158  0.44253226  0.38035623     0.85700
C248        C  0.01782867  0.39560008  0.38783622    -0.54500
C249        C  0.03190548  0.37622706  0.40169184     0.08700
C250        C  0.08191032  0.40382197  0.40435794     0.19600
C251        C  0.07460782  0.46903509  0.40085291    -0.55200
C252        C  0.08898703  0.44825265  0.41373451     0.08800
C253        C  0.08814680  0.43533601  0.37014588    -0.54800
C254        C  0.10197640  0.41323513  0.38211535     0.09300
H255        H  0.98415571  0.38092112  0.38326294     0.13800
H256        H  0.09570909  0.38852322  0.41426544    -0.00400
H257        H  0.07480313  0.49915164  0.40537540     0.14200
H258        H  0.09946275  0.44507652  0.35426078     0.13900
C259        C  0.05066886  0.13027760  0.37814308     0.85700
C260        C  0.08537138  0.13208285  0.39253888    -0.54500
C261        C  0.10064380  0.16503572  0.40740556     0.08700
C262        C  0.08494506  0.19800176  0.40450675     0.19600
C263        C  0.01738831  0.13158580  0.39301675    -0.55200
C264        C  0.03500413  0.16718844  0.40716403     0.08800
C265        C  0.07227304  0.17587276  0.36783523    -0.54800
C266        C  0.09267805  0.21149039  0.38132615     0.09300
H267        H  0.09255148  0.10554232  0.39286012     0.13800
H268        H  0.10088933  0.22780088  0.41509010    -0.00400
H269        H  0.48681459  0.10343322  0.39343177     0.14200
H270        H  0.06545320  0.18052778  0.35201804     0.13900
C271        C  0.37493694  0.44332853  0.37958755     0.85700
C272        C  0.37961220  0.48440578  0.39128757    -0.54500
C273        C  0.34741079  0.47495263  0.40540383     0.08700
C274        C  0.31122224  0.42514754  0.40531086     0.19600
C275        C  0.37054217  0.41185712  0.39740739    -0.55200
C276        C  0.33699386  0.40228659  0.41128828     0.08800
C277        C  0.32980437  0.41925835  0.36946724    -0.54800
C278        C  0.29633312  0.41150292  0.38222614     0.09300
H279        H  0.40833519  0.01997096  0.39126996     0.13800
H280        H  0.28412340  0.41836445  0.41604456    -0.00400
H281        H  0.39334464  0.40068455  0.39953737     0.14200
H282        H  0.32360608  0.40330389  0.35421542     0.13900
O283        O  0.05983681  0.06200665  0.31191136    -0.82600
C284        C  0.41082811  0.45794997  0.36327935     0.96800
O285        O  0.41796104  0.48975359  0.35139552    -0.71700
O286        O  0.99254134  0.06431300  0.36073124    -0.75300
Al287      Al  0.46854064  0.03300913  0.33447336     1.49000
C288        C  0.03305415  0.08989711  0.36336144     0.92100
O289        O  0.05402014  0.50436970  0.36294888    -0.81500
O290        O  0.99030307  0.43584026  0.31166283    -0.75000
Al291      Al  0.05256659  0.03061417  0.33741068     1.90100
O292        O  0.00223179  0.43619584  0.35429306    -0.74100
O293        O  0.41491894  0.43501340  0.31845278    -0.74000
O294        O  0.43259413  0.43907938  0.36105166    -0.79600
O295        O  0.43811902  0.50355951  0.30913902    -0.77800
O296        O  0.99423984  0.50255924  0.33636684    -1.14000
O297        O  0.01146502  0.08063903  0.31929263    -0.73100
C298        C  0.04597697  0.08838504  0.30999346     0.97600
C299        C  0.03522000  0.46255131  0.36541572     0.94000
Al300      Al  0.46309026  0.44090417  0.33567195     1.55600
O301        O  0.05944474  0.08158178  0.35387264    -0.77800
C302        C  0.40946483  0.46253659  0.30813231     0.98100
C303        C  0.03112642  0.45139115  0.31067213     0.93000
O304        O  0.05728149  0.48667934  0.32096399    -0.83100
C305        C  0.42374276  0.35504623  0.71209820     0.85700
C306        C  0.39345358  0.35903949  0.72767276    -0.54500
C307        C  0.37248684  0.32402515  0.74088967     0.08700
C308        C  0.37499741  0.28285073  0.73294377     0.19600
C309        C  0.44924825  0.33834557  0.72498200    -0.55200
C310        C  0.42291572  0.29981237  0.73613976     0.08800
C311        C  0.39280591  0.31501596  0.69827674    -0.54800
C312        C  0.36859925  0.27598265  0.70876131     0.09300
H313        H  0.39614322  0.39095294  0.73096757     0.13800
H314        H  0.35184780  0.25237229  0.74130307    -0.00400
H315        H  0.48449062  0.35762315  0.72657702     0.14200
H316        H  0.39344080  0.31626899  0.68133935     0.13900
C317        C  0.13643125  0.04277438  0.71630478     0.85700
C318        C  0.17034163  0.05581321  0.69885465    -0.54500
C319        C  0.21232039  0.07485432  0.70543441     0.08700
C320        C  0.21661112  0.07705201  0.72906610     0.19600
C321        C  0.14283809  0.01113318  0.73014836    -0.55200
C322        C  0.18501237  0.02985981  0.73713204     0.08800
C323        C  0.15353210  0.08527758  0.73021913    -0.54800
C324        C  0.19599072  0.10342157  0.73723190     0.09300
H325        H  0.16068826  0.04778609  0.68278524     0.13800
H326        H  0.25120519  0.09091236  0.73340076    -0.00400
H327        H  0.11617089  0.97943852  0.73565164     0.14200
H328        H  0.13140984  0.09509363  0.73632310     0.13900
C329        C  0.44642794  0.05448798  0.71628902     0.85700
C330        C  0.48085849  0.09908758  0.72651245    -0.54500
C331        C  0.46420802  0.11849052  0.73911217     0.08700
C332        C  0.41428040  0.09524498  0.73737767     0.19600
C333        C  0.41660179  0.02695807  0.73445245    -0.55200
C334        C  0.39949245  0.04789227  0.74644159     0.08800
C335        C  0.41707645  0.06480001  0.70345702    -0.54800
C336        C  0.40233403  0.08898810  0.71355255     0.09300
H337        H  0.51480766  0.10858852  0.72782329     0.13800
H338        H  0.40226627  0.11491648  0.74519827    -0.00400
H339        H  0.41437521  0.99598974  0.73851858     0.14200
H340        H  0.40565091  0.05059619  0.68802009     0.13900
O341        O  0.35199310  0.09445350  0.64443528    -0.82600
C342        C  0.35857710  0.23395089  0.69707434     0.96800
O343        O  0.38767623  0.22384730  0.69511809    -0.71700
O344        O  0.39019260  0.14825330  0.70211012    -0.75300
Al345      Al  0.39498580  0.18285637  0.67701823     1.49000
C346        C  0.37963899  0.10766000  0.70094130     0.92100
O347        O  0.27652894  0.08067545  0.69074949    -0.81500
O348        O  0.28034784  0.13762515  0.63796972    -0.75000
Al349      Al  0.31472001  0.08914547  0.66775778     1.90100
O350        O  0.25749039  0.12850263  0.68029494    -0.74100
O351        O  0.34942916  0.21958653  0.64590342    -0.74000
O352        O  0.32350909  0.21253737  0.68688035    -0.79600
O353        O  0.41092834  0.22399512  0.65422090    -0.77800
O354        O  0.33872980  0.14877411  0.66940059    -1.14000
O355        O  0.41275268  0.14842259  0.65943907    -0.73100
C356        C  0.39347780  0.11621964  0.64611020     0.97600
C357        C  0.25078171  0.09554236  0.69137053     0.94000
Al358      Al  0.30586830  0.17219560  0.66332240     1.55600
O359        O  0.35357640  0.08345200  0.68660722    -0.77800
C360        C  0.39048355  0.23825441  0.64410090     0.98100
C361        C  0.25548240  0.09584666  0.63823398     0.93000
O362        O  0.26637934  0.07380963  0.64920286    -0.83100
C363        C  0.40801081  0.01982775  0.83430567     0.79500
N364        N  0.38292251  0.01410441  0.85144092    -0.78800
C365        C  0.39591239  0.00898257  0.87069990     0.81900
N366        N  0.43409134  0.51170688  0.87357606    -0.78800
C367        C  0.46054459  0.51863514  0.85715386     0.82000
N368        N  0.44604878  0.02035565  0.83669162    -0.80500
C369        C  0.42015768  0.36033209  0.82993565     0.79500
N370        N  0.46247472  0.39162812  0.83425671    -0.78800
C371        C  0.47819374  0.40160894  0.85418962     0.81900
N372        N  0.45086258  0.37832316  0.87007730    -0.78800
C373        C  0.40855179  0.34642655  0.86649161     0.82000
N374        N  0.39314453  0.33753947  0.84626783    -0.80500
C375        C  0.24630045  0.48573721  0.80815302     0.79500
N376        N  0.22959116  0.44233509  0.80287699    -0.78800
C377        C  0.21210896  0.41049965  0.81726930     0.81900
N378        N  0.21650041  0.42272530  0.83772505    -0.78800
C379        C  0.23227677  0.46555011  0.84391697     0.82000
N380        N  0.24415824  0.99772347  0.82970901    -0.80500
C381        C  0.97320087  0.26145893  0.81260049     0.79500
N382        N  0.01170292  0.26769931  0.80587837    -0.78800
C383        C  0.04042614  0.26741863  0.81916808     0.81900
N384        N  0.03018621  0.26108731  0.83980117    -0.78800
C385        C  0.99193461  0.25514881  0.84705766     0.82000
N386        N  0.46676278  0.25868478  0.83327396    -0.80500
C387        C  0.25251557  0.19938065  0.81694713     0.79500
N388        N  0.25014147  0.23673088  0.81873751    -0.78800
C389        C  0.24491889  0.25113791  0.83767197     0.81900
N390        N  0.25509159  0.23633779  0.85480952    -0.78800
C391        C  0.25838868  0.19957499  0.85362517     0.82000
N392        N  0.25456606  0.17937250  0.83467604    -0.80500
C393        C  0.50341649  0.15238058  0.82689047     0.79500
N394        N  0.54572226  0.18483625  0.82837955    -0.78800
C395        C  0.06825703  0.20108034  0.84613849     0.81900
N396        N  0.04610629  0.18311673  0.86381676    -0.78800
C397        C  0.50146852  0.14713003  0.86389213     0.82000
N398        N  0.48056297  0.13211458  0.84481478    -0.80500
C399        C  0.27365836  0.21237610  0.96916480     0.85700
C400        C  0.24153623  0.17782036  0.95329059    -0.54500
C401        C  0.23060459  0.19536670  0.93729427     0.08700
C402        C  0.24765237  0.24600592  0.94061404     0.19600
C403        C  0.31071230  0.24759015  0.95555685    -0.55200
C404        C  0.29833909  0.26700599  0.94057808     0.08800
C405        C  0.25135197  0.23655351  0.97780822    -0.54800
C406        C  0.23503241  0.25197502  0.96333922     0.09300
H407        H  0.23674428  0.14455587  0.95192331     0.13800
H408        H  0.23427925  0.25876402  0.92896039    -0.00400
H409        H  0.34274673  0.25187456  0.95643244     0.14200
H410        H  0.25143195  0.24510373  0.99392783     0.13900
C411        C  0.27014647  0.02457415  0.96644434     0.85700
C412        C  0.30517825  0.01672255  0.95681561    -0.54500
C413        C  0.28959831  0.97993932  0.94373250     0.08700
C414        C  0.23800819  0.45126242  0.94216439     0.19600
C415        C  0.24489964  0.02598050  0.94753454    -0.55200
C416        C  0.23018951  0.98968777  0.93417708     0.08800
C417        C  0.23762765  0.98122381  0.97716610    -0.54800
C418        C  0.22006248  0.44145381  0.96473459     0.09300
H419        H  0.33933115  0.04244743  0.95775601     0.13800
H420        H  0.22355426  0.41976358  0.93282931    -0.00400
H421        H  0.24219410  0.05470990  0.94433947     0.14200
H422        H  0.22568663  0.98036563  0.99276975     0.13900
C423        C  0.44892237  0.20889918  0.96897283     0.85700
C424        C  0.45043765  0.23687464  0.95033273    -0.54500
C425        C  0.48341557  0.24585432  0.93634579     0.08700
C426        C  0.00868712  0.22247246  0.94249104     0.19600
C427        C  0.44528105  0.16696717  0.95838650    -0.55200
C428        C  0.47662149  0.17553429  0.94400991     0.08800
C429        C  0.49506631  0.23546829  0.97828452    -0.54800
C430        C  0.02503413  0.23913509  0.96503673     0.09300
H431        H  0.42552055  0.24483983  0.94739021     0.13800
H432        H  0.03530991  0.22988284  0.93124118    -0.00400
H433        H  0.41739827  0.13346922  0.96046847     0.14200
H434        H  0.50151605  0.24995622  0.99392227     0.13900
O435        O  0.40512080  0.21134491  0.03236615    -0.82600
C436        C  0.28864409  0.06421215  0.98154472     0.96800
O437        O  0.32910645  0.08749775  0.98521900    -0.71700
O438        O  0.40354365  0.15964211  0.99515521    -0.75300
Al439      Al  0.35634822  0.11706025  0.01109526     1.49000
C440        C  0.41308254  0.19446203  0.98544663     0.92100
O441        O  0.32048320  0.21698884  0.99738300    -0.81500
O442        O  0.26128620  0.15392214  0.02950192    -0.75000
Al443      Al  0.35827990  0.20721616  0.01493152     1.90100
O444        O  0.26930343  0.14960113  0.98743571    -0.74100
O445        O  0.26212779  0.07859716  0.03468333    -0.74000
O446        O  0.26272466  0.07113041  0.99186494    -0.79600
O447        O  0.31499811  0.06691481  0.02664026    -0.77800
O448        O  0.32807316  0.14697275  0.01264079    -1.14000
O449        O  0.38896251  0.14237039  0.03645037    -0.73100
C450        C  0.41468781  0.18376012  0.03947194     0.97600
C451        C  0.28854946  0.19170985  0.98560878     0.94000
Al452      Al  0.26953121  0.11635978  0.01114560     1.55600
O453        O  0.39331132  0.21498028  0.98971294    -0.77800
C454        C  0.28005271  0.05564142  0.03620248     0.98100
C455        C  0.28389267  0.18885937  0.04029748     0.93000
O456        O  0.32554835  0.20845411  0.03991559    -0.83100
C457        C  0.44262546  0.12163485  0.89065272    -0.21100
C458        C  0.48256002  0.12726786  0.88452855    -0.07600
C459        C  0.51123576  0.12977792  0.90049970     0.13200
C460        C  0.50624100  0.14090164  0.92101514    -0.21100
C461        C  0.47036254  0.14404163  0.92648777    -0.07600
C462        C  0.43543225  0.12817816  0.91186732     0.13200
C463        C  0.39094832  0.11803757  0.91826531    -0.24500
H464        H  0.41853967  0.11536718  0.87881144     0.14500
H465        H  0.03138799  0.14970469  0.93267297     0.14500
C466        C  0.05473605  0.13264878  0.89598739    -0.24400
H467        H  0.36931869  0.10820432  0.90438344     0.04800
H468        H  0.39175567  0.14678757  0.92614155     0.08000
H469        H  0.37666926  0.08975802  0.92920800     0.08000
H470        H  0.08316602  0.16739880  0.89662049     0.08000
H471        H  0.54798744  0.11091947  0.88045151     0.08000
H472        H  0.05912607  0.11289484  0.90805932     0.04700
C473        C  0.20572568  0.15723650  0.88059370    -0.21100
C474        C  0.24849215  0.17496325  0.87315308    -0.07600
C475        C  0.28213042  0.18628737  0.88750668     0.13200
C476        C  0.27383682  0.18667533  0.90893892    -0.21100
C477        C  0.23317354  0.17897269  0.91597954    -0.07600
C478        C  0.19794888  0.16056289  0.90194550     0.13200
C479        C  0.15289953  0.14640703  0.90930380    -0.24500
H480        H  0.17945649  0.14702357  0.86945376     0.14500
H481        H  0.30044277  0.19745937  0.91993717     0.14500
C482        C  0.32718387  0.20099151  0.87997915    -0.24400
H483        H  0.12930464  0.13126810  0.89615645     0.04800
H484        H  0.15217705  0.17570545  0.91573589     0.08000
H485        H  0.14280939  0.12099557  0.92166684     0.08000
H486        H  0.34018929  0.23155046  0.87048477     0.08000
H487        H  0.32538139  0.17369226  0.87007705     0.08000
H488        H  0.34995063  0.20834481  0.89325341     0.04700
C489        C  0.14628136  0.26223590  0.84793045    -0.21100
C490        C  0.11415380  0.21660020  0.84624638    -0.07600
C491        C  0.12579172  0.18449840  0.84233548     0.13200
C492        C  0.16850174  0.19874175  0.83848163    -0.21100
C493        C  0.20122131  0.24392945  0.83971785    -0.07600
C494        C  0.19051751  0.27637323  0.84484828     0.13200
C495        C  0.22444057  0.32510298  0.84678560    -0.24500
H496        H  0.13684085  0.28659620  0.85107747     0.14500
H497        H  0.17641163  0.17336366  0.83500851     0.14500
C498        C  0.09455323  0.13453713  0.84185626    -0.24400
H499        H  0.21593597  0.34441829  0.83655896     0.04800
H500        H  0.25707603  0.33226577  0.84183617     0.08000
H501        H  0.22577362  0.33665656  0.86323993     0.08000
H502        H  0.59464222  0.12210405  0.82556154     0.08000
H503        H  0.56094657  0.12426452  0.84597064     0.08000
H504        H  0.10485281  0.11876596  0.85358652     0.04700
C505        C  0.02265886  0.28623325  0.88232063    -0.21100
C506        C  0.98628458  0.25640440  0.87001479    -0.07600
C507        C  0.44974291  0.22979424  0.87988521     0.13200
C508        C  0.44677085  0.23116000  0.90181646    -0.21100
C509        C  0.48359730  0.25888832  0.91429206    -0.07600
C510        C  0.02074498  0.28586205  0.90429568     0.13200
C511        C  0.06169438  0.31761641  0.91634675    -0.24500
H512        H  0.05329260  0.30916145  0.87475325     0.14500
H513        H  0.41640498  0.20800209  0.90924384     0.14500
C514        C  0.41258294  0.19304278  0.86738201    -0.24400
H515        H  0.07345528  0.35241596  0.91161144     0.04800
H516        H  0.08737491  0.30976776  0.91278578     0.08000
H517        H  0.05646605  0.31604516  0.93355002     0.08000
H518        H  0.42435390  0.17451054  0.85787006     0.08000
H519        H  0.39898348  0.20740946  0.85668938     0.08000
H520        H  0.38631530  0.16861408  0.87772009     0.04700
C521        C  0.25142041  0.01828817  0.87628622    -0.21100
C522        C  0.22558291  0.47421779  0.86638755    -0.07600
C523        C  0.19273787  0.44025665  0.87932904     0.13200
C524        C  0.19212405  0.44839099  0.90090050    -0.21100
C525        C  0.22177075  0.99073807  0.91124221    -0.07600
C526        C  0.25009096  0.02660946  0.89794037     0.13200
C527        C  0.27942521  0.07354783  0.90613295    -0.24500
H528        H  0.27510183  0.04477322  0.86641138     0.14500
H529        H  0.16911233  0.42156678  0.91085234     0.14500
C530        C  0.15774559  0.39479646  0.87116154    -0.24400
H531        H  0.30010705  0.09648177  0.89357313     0.04800
H532        H  0.30108872  0.07408581  0.91852696     0.08000
H533        H  0.25937629  0.08679135  0.91246960     0.08000
H534        H  0.17197099  0.37473736  0.86586476     0.08000
H535        H  0.13938107  0.39865985  0.85836870     0.08000
H536        H  0.13358293  0.37497041  0.88343864     0.04700
C537        C  0.16054312  0.33154684  0.80525890    -0.21100
C538        C  0.16885001  0.37373556  0.81184716    -0.07600
C539        C  0.13379648  0.38028154  0.81583803     0.13200
C540        C  0.09366451  0.34358971  0.81941985    -0.21100
C541        C  0.08509553  0.30091516  0.81469002    -0.07600
C542        C  0.11741413  0.29488343  0.80515790     0.13200
C543        C  0.10757901  0.25208136  0.79444653    -0.24500
H544        H  0.18714774  0.32732278  0.80027705     0.14500
H545        H  0.06821350  0.34838899  0.82568999     0.14500
C546        C  0.13744397  0.42522264  0.81612538    -0.24400
H547        H  0.11943622  0.25903905  0.77801792     0.04800
H548        H  0.07211076  0.22758187  0.79368494     0.08000
H549        H  0.12441330  0.23750722  0.80259306     0.08000
H550        H  0.14932544  0.44057525  0.80064125     0.08000
H551        H  0.15888104  0.44744479  0.82877834     0.08000
H552        H  0.10535302  0.42217364  0.81859172     0.04700
C553        C  0.39790552  0.32454445  0.90415793    -0.21100
C554        C  0.37943790  0.32675888  0.88518078    -0.07600
C555        C  0.33638223  0.31805542  0.88586237     0.13200
C556        C  0.31040986  0.29838798  0.90376780    -0.21100
C557        C  0.32825329  0.29411538  0.92262910    -0.07600
C558        C  0.37427439  0.31312722  0.92306163     0.13200
C559        C  0.40079226  0.32787181  0.94300931    -0.24500
H560        H  0.43230372  0.33572438  0.90470137     0.14500
H561        H  0.27643182  0.28795212  0.90286147     0.14500
C562        C  0.31953011  0.33466627  0.86904679    -0.24400
H563        H  0.42768150  0.36323732  0.94164373     0.04800
H564        H  0.41533970  0.30711832  0.94564774     0.08000
H565        H  0.38153288  0.32718266  0.95682865     0.08000
H566        H  0.31798873  0.31864233  0.85373363     0.08000
H567        H  0.34152174  0.37135383  0.86762868     0.08000
H568        H  0.28662478  0.32798814  0.87306465     0.04700
C569        C  0.29762304  0.95980494  0.90667540    -0.21100
C570        C  0.31717058  0.97802726  0.92635247    -0.07600
C571        C  0.36316216  0.99964026  0.92778432     0.13200
C572        C  0.38782296  0.01125183  0.90931940    -0.21100
C573        C  0.36785317  0.99747191  0.88946695    -0.07600
C574        C  0.32238964  0.96804656  0.88842817     0.13200
C575        C  0.29974888  0.44194644  0.86871162    -0.24500
H576        H  0.26206984  0.43573150  0.90538140     0.14500
H577        H  0.42306505  0.03047383  0.91055706     0.14500
C578        C  0.38721613  0.00881971  0.94829948    -0.24400
H579        H  0.31508259  0.42350043  0.86253904     0.04800
H580        H  0.26456454  0.41737172  0.87105600     0.08000
H581        H  0.30266968  0.46607584  0.85691533     0.08000
H582        H  0.36482411  0.99363977  0.96177388     0.08000
H583        H  0.40854200  0.04542603  0.95100433     0.08000
H584        H  0.40791728  0.99380689  0.94768318     0.04700
C585        C  0.51921748  0.50789427  0.84239763    -0.21100
C586        C  0.49812020  0.51225356  0.86012528    -0.07600
C587        C  0.50465274  0.49665734  0.87946556     0.13200
C588        C  0.51634082  0.46407393  0.87866557    -0.21100
C589        C  0.51789043  0.44620397  0.85901889    -0.07600
C590        C  0.53324494  0.47725452  0.84269756     0.13200
C591        C  0.56115060  0.47566431  0.82554165    -0.24500
H592        H  0.52155811  0.52483626  0.82807536     0.14500
H593        H  0.51392127  0.44618285  0.89279530     0.14500
C594        C  0.49705278  0.51088615  0.90070293    -0.24400
H595        H  0.56788447  0.50065206  0.81334043     0.04800
H596        H  0.54512609  0.44223508  0.81811185     0.08000
H597        H  0.59268589  0.48306401  0.83230447     0.08000
H598        H  0.46851692  0.48229426  0.90831335     0.08000
H599        H  0.49170855  0.53916250  0.89979617     0.08000
H600        H  0.52632813  0.52231824  0.91069891     0.04700
C601        C  0.38090163  0.99387654  0.77666917    -0.21100
C602        C  0.38628657  0.03444287  0.76936742    -0.07600
C603        C  0.38307477  0.06245757  0.78499029     0.13200
C604        C  0.38978660  0.05739788  0.80634737    -0.21100
C605        C  0.39258707  0.02101785  0.81282584    -0.07600
C606        C  0.38150931  0.98611461  0.79823811     0.13200
C607        C  0.36660766  0.93984434  0.80572931    -0.24500
H608        H  0.37492843  0.96735333  0.76572608     0.14500
H609        H  0.39205459  0.08152291  0.81797960     0.14500
C610        C  0.36537044  0.09210963  0.78055706    -0.24400
H611        H  0.35960036  0.91606635  0.79244308     0.04800
H612        H  0.33983032  0.42726820  0.81539248     0.08000
H613        H  0.39125528  0.94013590  0.81612770     0.08000
H614        H  0.34728411  0.08305190  0.76550217     0.08000
H615        H  0.39166338  0.12771369  0.78109325     0.08000
H616        H  0.34095743  0.08707795  0.79270264     0.04700
C617        C  0.49223420  0.10493882  0.77196916    -0.21100
C618        C  0.48265794  0.13278237  0.76064364    -0.07600
C619        C  0.47981097  0.16619941  0.77149077     0.13200
C620        C  0.47839456  0.16584508  0.79357816    -0.21100
C621        C  0.48731203  0.13779886  0.80513848    -0.07600
C622        C  0.49656730  0.10852759  0.79378333     0.13200
C623        C  0.51130085  0.08049855  0.80385575    -0.24500
H624        H  0.49512646  0.07908738  0.76387400     0.14500
H625        H  0.47187205  0.18845060  0.80197270     0.14500
C626        C  0.48234531  0.20388325  0.75943242    -0.24400
H627        H  0.48801102  0.04479250  0.79985627     0.04800
H628        H  0.51305741  0.08481780  0.82101829     0.08000
H629        H  0.54396801  0.08974037  0.79779269     0.08000
H630        H  0.45464685  0.19163762  0.74843228     0.08000
H631        H  0.51289338  0.22007831  0.75013075     0.08000
H632        H  0.48361993  0.22984338  0.76992431     0.04700
C633        C  0.20997931  0.02218386  0.79367461    -0.21100
C634        C  0.24114949  0.00958912  0.79144970    -0.07600
C635        C  0.25183003  0.00197237  0.77088058     0.13200
C636        C  0.23158732  0.00716402  0.75349208    -0.21100
C637        C  0.19802538  0.01579003  0.75591236    -0.07600
C638        C  0.18601519  0.02206567  0.77631503     0.13200
C639        C  0.14704380  0.02682579  0.78007286    -0.24500
H640        H  0.19993900  0.02593374  0.80927858     0.14500
H641        H  0.24138311  0.00335611  0.73781847     0.14500
C642        C  0.28318149  0.48600254  0.76561506    -0.24400
H643        H  0.14270222  0.03136031  0.79700867     0.04800
H644        H  0.11706701  0.99620996  0.77437916     0.08000
H645        H  0.15047100  0.05597778  0.77191524     0.08000
H646        H  0.26347032  0.45164439  0.75889309     0.08000
H647        H  0.29857875  0.98424560  0.78104670     0.08000
H648        H  0.30798019  0.50706058  0.75385889     0.04700
C649        C  0.24310431  0.12802036  0.76953699    -0.21100
C650        C  0.21464359  0.13344518  0.75628992    -0.07600
C651        C  0.20116729  0.16305117  0.76306611     0.13200
C652        C  0.21147452  0.18104412  0.78345733    -0.21100
C653        C  0.23933718  0.17485546  0.79661037    -0.07600
C654        C  0.25566920  0.14829077  0.78939174     0.13200
C655        C  0.28712902  0.14188045  0.80221167    -0.24500
H656        H  0.25487538  0.10636249  0.76518821     0.14500
H657        H  0.19920519  0.20212494  0.78868192     0.14500
C658        C  0.17870883  0.17916141  0.74901525    -0.24400
H659        H  0.29863198  0.12226323  0.79345060     0.04800
H660        H  0.27099628  0.12342962  0.81668615     0.08000
H661        H  0.31618946  0.17486542  0.80636643     0.08000
H662        H  0.14455954  0.16547494  0.75427221     0.08000
H663        H  0.17928512  0.17038213  0.73227610     0.08000
H664        H  0.19611131  0.21622492  0.74989766     0.04700
C665        C  0.46737699  0.32250862  0.76826505    -0.21100
C666        C  0.43628655  0.28731997  0.75567933    -0.07600
C667        C  0.41207974  0.24368557  0.76439956     0.13200
C668        C  0.42017302  0.23723135  0.78518734    -0.21100
C669        C  0.45304458  0.27246438  0.79702562    -0.07600
C670        C  0.97215446  0.31574495  0.78946136     0.13200
C671        C  0.00577574  0.35523739  0.80201988    -0.24500
H672        H  0.98221933  0.35693886  0.76333413     0.14500
H673        H  0.40423642  0.20368489  0.79130044     0.14500
C674        C  0.37963915  0.20250332  0.75208536    -0.24400
H675        H  0.99870551  0.38223219  0.80102190     0.04800
H676        H  0.03860262  0.36734958  0.79530738     0.08000
H677        H  0.00525031  0.34748542  0.81883949     0.08000
H678        H  0.38129899  0.20857514  0.73506771     0.08000
H679        H  0.34617262  0.19040160  0.75797195     0.08000
H680        H  0.38618162  0.17520573  0.75411857     0.04700
C681        C  0.41387876  0.37733163  0.77110568    -0.21100
C682        C  0.37795389  0.33603146  0.76422984    -0.07600
C683        C  0.35262610  0.30524043  0.77978608     0.13200
C684        C  0.36623635  0.31369701  0.80109468    -0.21100
C685        C  0.40359561  0.35421532  0.80766041    -0.07600
C686        C  0.42544411  0.38771997  0.79226625     0.13200
C687        C  0.46037602  0.43576404  0.79694937    -0.24500
H688        H  0.43458169  0.40238637  0.75991846     0.14500
H689        H  0.34758584  0.28824862  0.81255515     0.14500
C690        C  0.31050392  0.26378498  0.77426478    -0.24400
H691        H  0.45341180  0.45839543  0.78808688     0.04800
H692        H  0.49269084  0.44219857  0.79181104     0.08000
H693        H  0.46140585  0.44579872  0.81350696     0.08000
H694        H  0.31317665  0.23447114  0.77777264     0.08000
H695        H  0.30093835  0.26183204  0.75761658     0.08000
H696        H  0.28442412  0.26399578  0.78345463     0.04700
C697        C  0.09283236  0.11039808  0.45959113    -0.21100
C698        C  0.13168377  0.14314944  0.46877097    -0.07600
C699        C  0.15721647  0.18488230  0.45923001     0.13200
C700        C  0.14606279  0.19093874  0.43917812    -0.21100
C701        C  0.11009563  0.15600000  0.42861847    -0.07600
C702        C  0.08159645  0.11556201  0.43943471     0.13200
C703        C  0.03948437  0.07707145  0.43049750    -0.24500
H704        H  0.07372671  0.07851417  0.46728528     0.14500
H705        H  0.16622403  0.22257578  0.43149119     0.14500
C706        C  0.19733775  0.22258784  0.46964005    -0.24400
H707        H  0.02164429  0.05039592  0.44214917     0.04800
H708        H  0.04564181  0.06103159  0.41689250     0.08000
H709        H  0.01700509  0.08819167  0.42618080     0.08000
H710        H  0.22645861  0.23173321  0.45986601     0.08000
H711        H  0.20275271  0.21383101  0.48551328     0.08000
H712        H  0.19340408  0.25188284  0.47137920     0.04700
C713        C  0.29019772  0.34276485  0.46350613    -0.21100
C714        C  0.32770849  0.35137537  0.47431699    -0.07600
C715        C  0.36844539  0.37652027  0.46434285     0.13200
C716        C  0.37073671  0.39288397  0.44398190    -0.21100
C717        C  0.33276279  0.38227877  0.43260506    -0.07600
C718        C  0.29183635  0.35579079  0.44260858     0.13200
C719        C  0.24886911  0.33639856  0.43126122    -0.24500
H720        H  0.25875425  0.32147653  0.47068326     0.14500
H721        H  0.40243835  0.41358385  0.43688256     0.14500
C722        C  0.40923933  0.38424792  0.47498710    -0.24400
H723        H  0.22935157  0.29976329  0.43360068     0.04800
H724        H  0.25261417  0.34101228  0.41409401     0.08000
H725        H  0.23042360  0.35144257  0.43768364     0.08000
H726        H  0.40600873  0.35186292  0.47867616     0.08000
H727        H  0.41457544  0.40320588  0.48993398     0.08000
H728        H  0.43824826  0.40301806  0.46489442     0.04700
C729        C  0.29089914  0.19368636  0.46790140    -0.21100
C730        C  0.29631481  0.20269748  0.48978964    -0.07600
C731        C  0.28755600  0.16684242  0.50319726     0.13200
C732        C  0.27279388  0.12467050  0.49387092    -0.21100
C733        C  0.24835525  0.11539079  0.47552047    -0.07600
C734        C  0.26792034  0.14911120  0.46051396     0.13200
C735        C  0.25916699  0.13786867  0.43756069    -0.24500
H736        H  0.30127985  0.22045692  0.45685028     0.14500
H737        H  0.26507707  0.09687704  0.50389949     0.14500
C738        C  0.28662842  0.16971287  0.52681110    -0.24400
H739        H  0.27534756  0.16845087  0.42795463     0.04800
H740        H  0.22357874  0.11980440  0.43438537     0.08000
H741        H  0.27198873  0.11622253  0.43270585     0.08000
H742        H  0.26084534  0.17662083  0.53152965     0.08000
H743        H  0.31875412  0.19607726  0.53306623     0.08000
H744        H  0.27827020  0.13776614  0.53419265     0.04700
C745        C  0.95214077  0.32286910  0.44765387    -0.21100
C746        C  0.97376551  0.30609433  0.45879740    -0.07600
C747        C  0.00773281  0.30360665  0.44897340     0.13200
C748        C  0.02186813  0.32188166  0.42904512    -0.21100
C749        C  0.00423966  0.34427364  0.41871639    -0.07600
C750        C  0.96640727  0.34181948  0.42774713     0.13200
C751        C  0.43673105  0.34904941  0.41608576    -0.24500
H752        H  0.42370212  0.31505167  0.45420321     0.14500
H753        H  0.04806103  0.31957510  0.42183021     0.14500
C754        C  0.02981075  0.28180144  0.45899435    -0.24400
H755        H  0.40781944  0.34160027  0.42567265     0.04800
H756        H  0.42404388  0.32926813  0.40128509     0.08000
H757        H  0.45413189  0.38519414  0.41294552     0.08000
H758        H  0.02509028  0.25340971  0.44891873     0.08000
H759        H  0.01712084  0.26881668  0.47482890     0.08000
H760        H  0.06526708  0.30653204  0.46047321     0.04700
C761        C  0.45268222  0.12179239  0.44924497    -0.21100
C762        C  0.97550480  0.12875692  0.46741236    -0.07600
C763        C  0.02102402  0.15856310  0.46573859     0.13200
C764        C  0.03877445  0.17661477  0.44617733    -0.21100
C765        C  0.01319549  0.16351445  0.42779923    -0.07600
C766        C  0.96746592  0.13858321  0.42994623     0.13200
C767        C  0.44005597  0.13249795  0.41207651    -0.24500
H768        H  0.41744613  0.10213840  0.45026903     0.14500
H769        H  0.07353217  0.19892183  0.44535026     0.14500
C770        C  0.05181064  0.17087043  0.48404818    -0.24400
H771        H  0.41874642  0.14521304  0.41717720     0.04800
H772        H  0.41922217  0.09638751  0.40803987     0.08000
H773        H  0.95417274  0.15069092  0.39813816     0.08000
H774        H  0.04850089  0.14025247  0.49077840     0.08000
H775        H  0.04493828  0.18956785  0.49614584     0.08000
H776        H  0.08634687  0.19253101  0.47931656     0.04700
C777        C  0.83965308  0.09552975  0.48349401    -0.21100
C778        C  0.84400425  0.08148113  0.50341469    -0.07600
C779        C  0.34072696  0.10373553  0.52091355     0.13200
C780        C  0.36112971  0.15001366  0.51847367    -0.21100
C781        C  0.87612076  0.17109432  0.49808619    -0.07600
C782        C  0.86203303  0.14200592  0.48010828     0.13200
C783        C  0.87204354  0.15841296  0.45791869    -0.24500
H784        H  0.83222802  0.07329625  0.47012941     0.14500
H785        H  0.36629921  0.17107052  0.53210611     0.14500
C786        C  0.32142189  0.08231791  0.54150376    -0.24400
H787        H  0.85974220  0.18103243  0.45494389     0.04800
H788        H  0.90774705  0.17623883  0.45519151     0.08000
H789        H  0.85639521  0.13035329  0.44631083     0.08000
H790        H  0.33909897  0.06692636  0.54787435     0.08000
H791        H  0.28660863  0.05640485  0.53920189     0.08000
H792        H  0.32321526  0.10711937  0.55321563     0.04700
C793        C  0.32065606  0.49566605  0.45798231    -0.21100
C794        C  0.35073277  0.48992492  0.46932587    -0.07600
C795        C  0.38940401  0.49803209  0.45953473     0.13200
C796        C  0.39261439  0.50248402  0.43763377    -0.21100
C797        C  0.35791107  0.49927851  0.42583371    -0.07600
C798        C  0.32473855  0.50184014  0.43633860     0.13200
C799        C  0.29189420  0.50758931  0.42444852    -0.24500
H800        H  0.28544086  0.98678487  0.46531836     0.14500
H801        H  0.41929824  0.50231842  0.42964334     0.14500
C802        C  0.42500578  0.49779918  0.47175120    -0.24400
H803        H  0.25997057  0.00214348  0.43471127     0.04800
H804        H  0.27346826  0.47961688  0.41307908     0.08000
H805        H  0.30105866  0.03598002  0.41589072     0.08000
H806        H  0.41166342  0.46597124  0.48012424     0.08000
H807        H  0.43887550  0.52555628  0.48348814     0.08000
H808        H  0.45180392  0.50183983  0.46141150     0.04700
C809        C  0.06204473  0.43846324  0.47156347    -0.21100
C810        C  0.09148615  0.42640039  0.47848902    -0.07600
C811        C  0.12780328  0.43642851  0.46548607     0.13200
C812        C  0.12974877  0.45116791  0.44503123    -0.21100
C813        C  0.09662407  0.45627381  0.43690657    -0.07600
C814        C  0.06480882  0.45433145  0.45101416     0.13200
C815        C  0.02980066  0.96234109  0.44433654    -0.24500
H816        H  0.03199690  0.92847646  0.48184135     0.14500
H817        H  0.15531251  0.45464383  0.43459014     0.14500
C818        C  0.16489558  0.43151536  0.47274972    -0.24400
H819        H  0.00775376  0.95953876  0.45728580     0.04800
H820        H  0.00976247  0.94102424  0.43106823     0.08000
H821        H  0.04811580  0.99779605  0.43962655     0.08000
H822        H  0.15416247  0.39589308  0.47463433     0.08000
H823        H  0.17772691  0.45040221  0.48767339     0.08000
H824        H  0.19225849  0.44538604  0.46136114     0.04700
C825        C  0.16891563  0.89936966  0.52378487    -0.21100
C826        C  0.13967246  0.35694747  0.51551133    -0.07600
C827        C  0.15387546  0.32968956  0.50640493     0.13200
C828        C  0.19914819  0.34706186  0.50439545    -0.21100
C829        C  0.22926569  0.39161594  0.51035730    -0.07600
C830        C  0.21274566  0.91789087  0.52015463     0.13200
C831        C  0.24113631  0.96781517  0.52404971    -0.24500
H832        H  0.15870385  0.92172252  0.52954334     0.14500
H833        H  0.21088929  0.32644249  0.49788123     0.14500
C834        C  0.12166014  0.28304609  0.49895570    -0.24400
H835        H  0.22901825  0.98539823  0.51458560     0.04800
H836        H  0.27568331  0.98246008  0.51969288     0.08000
H837        H  0.23906653  0.97547364  0.54084087     0.08000
H838        H  0.10052764  0.28375543  0.48655542     0.08000
H839        H  0.10110088  0.26327000  0.51231656     0.08000
H840        H  0.13841130  0.26631176  0.49239271     0.04700
C841        C  0.17313675  0.05662512  0.56414944    -0.21100
C842        C  0.16747392  0.08463669  0.57818310    -0.07600
C843        C  0.16106122  0.11783035  0.56970398     0.13200
C844        C  0.15532297  0.11814659  0.54781389    -0.21100
C845        C  0.15736533  0.08697893  0.53423652    -0.07600
C846        C  0.16599735  0.05548224  0.54279004     0.13200
C847        C  0.16779686  0.01983400  0.52975802    -0.24500
H848        H  0.18197938  0.03357069  0.56961387     0.14500
H849        H  0.15179101  0.14443731  0.54126528     0.14500
C850        C  0.16520157  0.15607557  0.58279158    -0.24400
H851        H  0.16627133  0.99335990  0.53965308     0.04800
H852        H  0.19896560  0.03438296  0.52107499     0.08000
H853        H  0.13981840  0.00355273  0.51869960     0.08000
H854        H  0.17225557  0.15432075  0.59951459     0.08000
H855        H  0.13501418  0.15708748  0.58163611     0.08000
H856        H  0.19260159  0.18795590  0.57672934     0.04700
C857        C  0.09783560  0.47284368  0.58229279    -0.21100
C858        C  0.13027355  0.97172107  0.59364132    -0.07600
C859        C  0.14086879  0.94004959  0.58712918     0.13200
C860        C  0.11963410  0.91266088  0.56953928    -0.21100
C861        C  0.09206238  0.41851647  0.55616178    -0.07600
C862        C  0.08050104  0.44946097  0.56322862     0.13200
C863        C  0.05148018  0.45968352  0.55066322    -0.24500
H864        H  0.08797139  0.49572941  0.58777583     0.14500
H865        H  0.12871791  0.88863637  0.56499295     0.14500
C866        C  0.17466684  0.93451322  0.59819206    -0.24400
H867        H  0.04521228  0.48399176  0.55894987     0.04800
H868        H  0.01985084  0.42892680  0.54783577     0.08000
H869        H  0.06682444  0.47442610  0.53544724     0.08000
H870        H  0.19020452  0.95828404  0.61157510     0.08000
H871        H  0.20064883  0.93996021  0.58691666     0.08000
H872        H  0.15922702  0.90006008  0.60424627     0.04700
C873        C  0.47906428  0.15973041  0.57982211    -0.21100
C874        C  0.49409561  0.13325376  0.58774216    -0.07600
C875        C  0.51278886  0.11604838  0.57342395     0.13200
C876        C  0.50478407  0.11574400  0.55183401    -0.21100
C877        C  0.47786635  0.13078688  0.54485664    -0.07600
C878        C  0.46826381  0.15654131  0.55864410     0.13200
C879        C  0.44107553  0.17517764  0.55192325    -0.24500
H880        H  0.46774351  0.17573775  0.59068639     0.14500
H881        H  0.51503514  0.09902258  0.54082566     0.14500
C882        C  0.53800599  0.09496946  0.58038799    -0.24400
H883        H  0.44180026  0.19941849  0.56359154     0.04800
H884        H  0.40692947  0.14744034  0.55089313     0.08000
H885        H  0.45244455  0.19161802  0.53655141     0.08000
H886        H  0.51691133  0.06340263  0.58872946     0.08000
H887        H  0.06452255  0.12321169  0.59058308     0.08000
H888        H  0.55262023  0.08689182  0.56687474     0.04700
C889        C  0.41562212  0.52029131  0.57253202    -0.21100
C890        C  0.38687070  0.02268174  0.58666427    -0.07600
C891        C  0.34387947  0.00766042  0.58071316     0.13200
C892        C  0.32973529  0.98831152  0.56076388    -0.21100
C893        C  0.35839195  0.98658692  0.54602235    -0.07600
C894        C  0.40255497  0.50438272  0.55193111     0.13200
C895        C  0.43521450  0.50543345  0.53654589    -0.24500
H896        H  0.44836463  0.53114632  0.57737976     0.14500
H897        H  0.29597541  0.97473347  0.55665681     0.14500
C898        C  0.31284701  0.01127845  0.59549542    -0.24400
H899        H  0.46740418  0.51773274  0.54406042     0.04800
H900        H  0.43987238  0.52794458  0.52349869     0.08000
H901        H  0.42376682  0.47169716  0.52988563     0.08000
H902        H  0.32579613  0.04688984  0.59976820     0.08000
H903        H  0.30896308  0.99238105  0.60995096     0.08000
H904        H  0.28018753  0.99773112  0.58827250     0.04700
C905        C  0.36910820  0.35061853  0.57990882    -0.21100
C906        C  0.35868869  0.31214652  0.59124067    -0.07600
C907        C  0.32694086  0.27019713  0.58270418     0.13200
C908        C  0.31217804  0.26750148  0.56208690    -0.21100
C909        C  0.32797005  0.30549504  0.54940755    -0.07600
C910        C  0.35382600  0.34777334  0.55926712     0.13200
C911        C  0.36560688  0.38999350  0.54836000    -0.24500
H912        H  0.39209724  0.38328177  0.58650018     0.14500
H913        H  0.28898482  0.23482337  0.55570415     0.14500
C914        C  0.30805798  0.22753418  0.59479463    -0.24400
H915        H  0.38416033  0.39360700  0.53385534     0.04800
H916        H  0.38568670  0.41965613  0.55860869     0.08000
H917        H  0.33519026  0.38905030  0.54439682     0.08000
H918        H  0.31960116  0.23355515  0.61126101     0.08000
H919        H  0.31680425  0.20460598  0.58700554     0.08000
H920        H  0.27196944  0.21090386  0.59519547     0.04700
C921        C  0.46072429  0.34793594  0.56437351    -0.21100
C922        C  0.47010895  0.32526768  0.57941676    -0.07600
C923        C  0.98794333  0.29746689  0.57306214     0.13200
C924        C  0.98851208  0.28950712  0.55137209    -0.21100
C925        C  0.47228086  0.30758292  0.53618115    -0.07600
C926        C  0.46122399  0.33901094  0.54277113     0.13200
C927        C  0.44794265  0.36131659  0.52707971    -0.24500
H928        H  0.45058467  0.37073774  0.56956680     0.14500
H929        H  0.99861223  0.26687092  0.54579324     0.14500
C930        C  0.00318228  0.27626476  0.58837301    -0.24400
H931        H  0.44274150  0.38674852  0.53479460     0.04800
H932        H  0.41741902  0.33611367  0.51897918     0.08000
H933        H  0.47422632  0.37869356  0.51531620     0.08000
H934        H  0.03003708  0.30270053  0.59813419     0.08000
H935        H  0.01568367  0.25688832  0.58019363     0.08000
H936        H  0.97584102  0.25346279  0.59872383     0.04700
C937        C  0.41352587  0.24997558  0.17061756    -0.21100
C938        C  0.43708572  0.25889426  0.18899302    -0.07600
C939        C  0.41176614  0.23256980  0.20579643     0.13200
C940        C  0.38211689  0.18707880  0.20139787    -0.21100
C941        C  0.37450548  0.17124605  0.18028588    -0.07600
C942        C  0.38843070  0.20476986  0.16448864     0.13200
C943        C  0.38293732  0.19634600  0.14147727    -0.24500
H944        H  0.42633888  0.27544796  0.15888668     0.14500
H945        H  0.36758631  0.16433602  0.21431602     0.14500
C946        C  0.42096624  0.25069549  0.22791951    -0.24400
H947        H  0.41411357  0.20314376  0.13439149     0.04800
H948        H  0.37338094  0.21840525  0.13410033     0.08000
H949        H  0.35673627  0.16253481  0.13840740     0.08000
H950        H  0.45553499  0.26397896  0.23216925     0.08000
H951        H  0.40009310  0.22449193  0.23929553     0.08000
H952        H  0.41402823  0.27803168  0.22935247     0.04700
C953        C  0.08401071  0.22031239  0.24179037    -0.21100
C954        C  0.05280211  0.19767083  0.25762020    -0.07600
C955        C  0.00888054  0.18429437  0.25381912     0.13200
C956        C  0.99732664  0.19080086  0.23392375    -0.21100
C957        C  0.02875479  0.21178292  0.21814554    -0.07600
C958        C  0.07251939  0.22671089  0.22202643     0.13200
C959        C  0.10736062  0.25037005  0.20561272    -0.24500
H960        H  0.11793248  0.23279684  0.24435111     0.14500
H961        H  0.46959152  0.19093075  0.23196481     0.14500
C962        C  0.97404658  0.16601068  0.27046688    -0.24400
H963        H  0.14050508  0.26254296  0.21189222     0.04800
H964        H  0.10692481  0.27976791  0.19986090     0.08000
H965        H  0.10160513  0.22718219  0.19222690     0.08000
H966        H  0.98721933  0.16839744  0.28641032     0.08000
H967        H  0.94927467  0.13061315  0.26664924     0.08000
H968        H  0.46604823  0.19403880  0.27242713     0.04700
C969        C  0.35148443  0.50479729  0.21500713    -0.21100
C970        C  0.32593599  0.52364493  0.21202070    -0.07600
C971        C  0.29919053  0.52218551  0.22891471     0.13200
C972        C  0.29803793  0.50119779  0.24791265    -0.21100
C973        C  0.32508179  0.48388657  0.25118512    -0.07600
C974        C  0.35246498  0.48621307  0.23429358     0.13200
C975        C  0.38429883  0.47067198  0.23580468    -0.24500
H976        H  0.37250373  0.50656469  0.20235593     0.14500
H977        H  0.27739912  0.50019748  0.26064480     0.14500
C978        C  0.27358316  0.04446472  0.22581527    -0.24400
H979        H  0.37835818  0.44686343  0.22280943     0.04800
H980        H  0.41792028  0.50004764  0.23493053     0.08000
H981        H  0.38220446  0.45307854  0.25013469     0.08000
H982        H  0.25334945  0.03039176  0.21149895     0.08000
H983        H  0.29438149  0.08126566  0.22451011     0.08000
H984        H  0.25176006  0.03731885  0.23951407     0.04700
C985        C  0.33411902  0.34790573  0.22241776    -0.21100
C986        C  0.31599101  0.36362970  0.20808090    -0.07600
C987        C  0.28432987  0.37314439  0.21497382     0.13200
C988        C  0.27760965  0.37481833  0.23658152    -0.21100
C989        C  0.30184680  0.36691975  0.25142839    -0.07600
C990        C  0.32472455  0.34636787  0.24392375     0.13200
C991        C  0.33816018  0.32144680  0.25795622    -0.24500
H992        H  0.35627962  0.33762448  0.21688401     0.14500
H993        H  0.25615555  0.38625059  0.24141067     0.14500
C994        C  0.26002523  0.38469664  0.19964681    -0.24400
H995        H  0.32409638  0.28672141  0.25187963     0.04800
H996        H  0.32620995  0.31926606  0.27424265     0.08000
H997        H  0.37401102  0.33786819  0.25831737     0.08000
H998        H  0.24132538  0.35617997  0.18853124     0.08000
H999        H  0.28335843  0.41473577  0.19072161     0.08000
H1000       H  0.23663375  0.39179749  0.20768806     0.04700
C1001       C  0.05990958  0.35393937  0.23494178    -0.21100
C1002       C  0.03307255  0.36180500  0.24841257    -0.07600
C1003       C  0.99942746  0.36567121  0.23926007     0.13200
C1004       C  0.99718768  0.36757147  0.21732116    -0.21100
C1005       C  0.02737696  0.36531498  0.20405602    -0.07600
C1006       C  0.05831471  0.35698682  0.21290680     0.13200
C1007       C  0.09172403  0.35493784  0.19931780    -0.24500
H1008       H  0.08449762  0.34886094  0.24162956     0.14500
H1009       H  0.97259977  0.37270112  0.21043996     0.14500
C1010       C  0.96491751  0.36669511  0.25242973    -0.24400
H1011       H  0.11497794  0.35050169  0.20881385     0.04800
H1012       H  0.11075817  0.38649712  0.19057223     0.08000
H1013       H  0.07519280  0.32657440  0.18794751     0.08000
H1014       H  0.97874209  0.39561883  0.26342888     0.08000
H1015       H  0.44664075  0.33527182  0.26238540     0.08000
H1016       H  0.43967750  0.36814067  0.24316832     0.04700
C1017       C  0.50802674  0.48388480  0.17646542    -0.21100
C1018       C  0.51771844  0.46921570  0.15779591    -0.07600
C1019       C  0.49690923  0.47068826  0.13938444     0.13200
C1020       C  0.45556567  0.46535067  0.14137211    -0.21100
C1021       C  0.43768838  0.46179682  0.16149194    -0.07600
C1022       C  0.46740434  0.48002158  0.17850539     0.13200
C1023       C  0.45650821  0.49302957  0.19897252    -0.24500
H1024       H  0.52769622  0.49003201  0.19037940     0.14500
H1025       H  0.43547412  0.45760343  0.12747824     0.14500
C1026       C  0.01818588  0.47022086  0.11708809    -0.24400
H1027       H  0.48264461  0.52746197  0.20351606     0.04800
H1028       H  0.45347249  0.46953503  0.21126121     0.08000
H1029       H  0.42614192  0.49339705  0.19743975     0.08000
H1030       H  0.99620268  0.43848915  0.10844455     0.08000
H1031       H  0.05119208  0.47483863  0.11813689     0.08000
H1032       H  0.02100317  0.49853539  0.10818198     0.04700
C1033       C  0.12528289  0.50003893  0.24719731    -0.21100
C1034       C  0.13424412  0.46931027  0.25607933    -0.07600
C1035       C  0.15584946  0.45229253  0.24357947     0.13200
C1036       C  0.16446399  0.46412664  0.22242060    -0.21100
C1037       C  0.15523812  0.49464797  0.21376911    -0.07600
C1038       C  0.13580709  0.51321346  0.22634420     0.13200
C1039       C  0.12495015  0.54640108  0.21815005    -0.24500
H1040       H  0.10892834  0.51323556  0.25651839     0.14500
H1041       H  0.18123127  0.45174345  0.21285419     0.14500
C1042       C  0.17169750  0.42307995  0.25198822    -0.24400
H1043       H  0.08963747  0.53338143  0.22036755     0.04800
H1044       H  0.13199790  0.55291734  0.20120611     0.08000
H1045       H  0.14396590  0.57852372  0.22698992     0.08000
H1046       H  0.14515687  0.39296662  0.25954150     0.08000
H1047       H  0.19844880  0.44249507  0.26341124     0.08000
H1048       H  0.18522401  0.41140269  0.23939557     0.04700
C1049       C  0.20527904  0.24272537  0.23071445    -0.21100
C1050       C  0.18200823  0.21334288  0.21392823    -0.07600
C1051       C  0.14455319  0.17138406  0.21824337     0.13200
C1052       C  0.13158035  0.16008686  0.23913870    -0.21100
C1053       C  0.15456241  0.18987154  0.25583663    -0.07600
C1054       C  0.19190612  0.23164349  0.25153562     0.13200
C1055       C  0.21804098  0.26524595  0.26860710    -0.24500
H1056       H  0.23465359  0.27442101  0.22755203     0.14500
H1057       H  0.10183875  0.12874956  0.24236258     0.14500
C1058       C  0.11838483  0.13803297  0.20106782    -0.24400
H1059       H  0.21759708  0.29634742  0.26629596     0.04800
H1060       H  0.25192461  0.27275277  0.26794237     0.08000
H1061       H  0.20591191  0.25299938  0.28458851     0.08000
H1062       H  0.13939084  0.12891881  0.19210165     0.11600
H1063       H  0.10484513  0.15249860  0.19037405     0.08000
H1064       H  0.09045641  0.10688585  0.20740381     0.04700
C1065       C  0.27668343  0.15104180  0.19520730    -0.21100
C1066       C  0.26417759  0.12745254  0.17591823    -0.07600
C1067       C  0.28044274  0.15202154  0.15716737     0.13200
C1068       C  0.30057983  0.19873535  0.15835973    -0.21100
C1069       C  0.29745904  0.21894197  0.17699028    -0.07600
C1070       C  0.29593811  0.19750006  0.19578300     0.13200
C1071       C  0.30629952  0.22146199  0.21667587    -0.24500
H1072       H  0.26887705  0.13329516  0.20985364     0.14500
H1073       H  0.30756239  0.21693000  0.14388820     0.14500
C1074       C  0.27422868  0.13002899  0.13582391    -0.24400
H1075       H  0.32953138  0.21580583  0.22539811     0.04800
H1076       H  0.27608446  0.20858458  0.22611506     0.08000
H1077       H  0.32126529  0.25790557  0.21462712     0.08000
H1078       H  0.23929807  0.11036117  0.13162683     0.08000
H1079       H  0.28705291  0.10722592  0.13575879     0.08000
H1080       H  0.29146854  0.15503314  0.12341504     0.04700
C1081       C  0.33808207  0.04423381  0.09406796    -0.21100
C1082       C  0.30520418  0.49617610  0.09293364    -0.07600
C1083       C  0.30216572  0.47092578  0.11058265     0.13200
C1084       C  0.31587369  0.49218280  0.13055206    -0.21100
C1085       C  0.33555203  0.53880877  0.13321532    -0.07600
C1086       C  0.35235094  0.06625656  0.11358169     0.13200
C1087       C  0.37600895  0.11602937  0.11268302    -0.24500
H1088       H  0.34331320  0.06379198  0.08014434     0.14500
H1089       H  0.30997774  0.47186896  0.14420579     0.14500
C1090       C  0.28546521  0.42206312  0.10860309    -0.24400
H1091       H  0.39566683  0.12827031  0.09821540     0.04800
H1092       H  0.39929482  0.13194705  0.12581406     0.08000
H1093       H  0.35148909  0.12591394  0.11118227     0.08000
H1094       H  0.30716643  0.41664367  0.09809234     0.08000
H1095       H  0.25210620  0.40366444  0.10219315     0.08000
H1096       H  0.28513960  0.40837663  0.12412648     0.04700
C1097       C  0.19467089  0.44685231  0.11131327    -0.21100
C1098       C  0.18290067  0.46451802  0.09483326    -0.07600
C1099       C  0.16391637  0.49012580  0.09950679     0.13200
C1100       C  0.16046731  0.50052218  0.12060323    -0.21100
C1101       C  0.17515134  0.48518707  0.13700303    -0.07600
C1102       C  0.19106370  0.45680732  0.13235241     0.13200
C1103       C  0.20612802  0.43880624  0.14948014    -0.24500
H1104       H  0.20758526  0.42597285  0.10761821     0.14500
H1105       H  0.14838222  0.52250427  0.12429160     0.14500
C1106       C  0.14830403  0.50700365  0.08217603    -0.24400
H1107       H  0.21775607  0.41711000  0.14305556     0.04800
H1108       H  0.17866035  0.41862622  0.16031226     0.08000
H1109       H  0.23334477  0.46682827  0.15842303     0.08000
H1110       H  0.12425118  0.47835396  0.07229198     0.08000
H1111       H  0.18128869  0.03136623  0.07242565     0.08000
H1112       H  0.13198523  0.52442636  0.08842066     0.04700
C1113       C  0.04198247  0.32531199  0.09470488    -0.21100
C1114       C  0.00053695  0.29356161  0.08695213    -0.07600
C1115       C  0.96344167  0.28539064  0.09861715     0.13200
C1116       C  0.96920630  0.30613782  0.11848270    -0.21100
C1117       C  0.01099582  0.33585656  0.12660123    -0.07600
C1118       C  0.04731466  0.34683291  0.11405980     0.13200
C1119       C  0.09187328  0.38328649  0.12052745    -0.24500
H1120       H  0.07083408  0.33276371  0.08589045     0.14500
H1121       H  0.44020949  0.29993573  0.12663291     0.14500
C1122       C  0.41888366  0.25882113  0.08905155    -0.24400
H1123       H  0.11639039  0.38348419  0.10989024     0.04800
H1124       H  0.09968473  0.37901703  0.13676890     0.08000
H1125       H  0.09320673  0.41549102  0.11971721     0.08000
H1126       H  0.40065279  0.22780332  0.09819535     0.08000
H1127       H  0.41905015  0.24977050  0.07231666     0.08000
H1128       H  0.40137323  0.27721851  0.08996727     0.04700
C1129       C  0.49455182  0.17871482  0.13248388    -0.21100
C1130       C  0.01876839  0.21602909  0.14159662    -0.07600
C1131       C  0.05259983  0.24985105  0.12979916     0.13200
C1132       C  0.05324268  0.24379100  0.10801900    -0.21100
C1133       C  0.02132215  0.20389339  0.09815617    -0.07600
C1134       C  0.49640264  0.17181767  0.11073053     0.13200
C1135       C  0.47208209  0.12546923  0.10119931    -0.24500
H1136       H  0.47146158  0.15140452  0.14216472     0.14500
H1137       H  0.07694998  0.27114845  0.09858214     0.14500
C1138       C  0.08724623  0.29227984  0.14036448    -0.24400
H1139       H  0.45112114  0.10018184  0.11291474     0.04800
H1140       H  0.49602151  0.11691132  0.09518152     0.08000
H1141       H  0.45175663  0.12360233  0.08777003     0.08000
H1142       H  0.10442867  0.28433495  0.15232072     0.08000
H1143       H  0.07192805  0.30894993  0.14846084     0.08000
H1144       H  0.11180000  0.31546691  0.12898266     0.04700
C1145       C  0.31715119  0.29625427  0.10062655    -0.21100
C1146       C  0.28048662  0.29423938  0.09187425    -0.07600
C1147       C  0.25735678  0.30988181  0.10391136     0.13200
C1148       C  0.27093181  0.32552468  0.12451310    -0.21100
C1149       C  0.30965039  0.33105112  0.13235535    -0.07600
C1150       C  0.33245737  0.31517041  0.12056581     0.13200
C1151       C  0.37250495  0.31685680  0.12879030    -0.24500
H1152       H  0.33405348  0.28302941  0.09179681     0.14500
H1153       H  0.25311903  0.33677102  0.13397939     0.14500
C1154       C  0.21984872  0.31258082  0.09514825    -0.24400
H1155       H  0.36719448  0.28274032  0.12815568     0.04800
H1156       H  0.38021917  0.32892246  0.14530657     0.08000
H1157       H  0.40092164  0.33910028  0.11885443     0.08000
H1158       H  0.19528888  0.28078495  0.08775623     0.08000
H1159       H  0.23199518  0.33872261  0.08310230     0.08000
H1160       H  0.20332955  0.32135990  0.10745047     0.04700
C1161       C  0.15501728  0.19908089  0.10264124    -0.21100
C1162       C  0.17621911  0.17875990  0.09311469    -0.07600
C1163       C  0.18811758  0.15450574  0.10578593     0.13200
C1164       C  0.18896466  0.16051021  0.12758876    -0.21100
C1165       C  0.17896023  0.19097755  0.13676139    -0.07600
C1166       C  0.15836561  0.20752552  0.12445030     0.13200
C1167       C  0.14389119  0.23725346  0.13393226    -0.24500
H1168       H  0.14081099  0.21332962  0.09298523     0.14500
H1169       H  0.20177827  0.14509088  0.13737420     0.14500
C1170       C  0.20249282  0.12457528  0.09634704    -0.24400
H1171       H  0.13050683  0.24908627  0.12177880     0.04800
H1172       H  0.17193089  0.26705667  0.14151086     0.08000
H1173       H  0.11829276  0.21856725  0.14584373     0.08000
H1174       H  0.19558035  0.11898370  0.07925057     0.08000
H1175       H  0.18475934  0.09174869  0.10400903     0.08000
H1176       H  0.23794448  0.13953434  0.09867479     0.04700
C1177       C  0.21324333  0.74169838  0.04175919     0.85700
C1178       C  0.18016860  0.70869170  0.05743828    -0.54500
C1179       C  0.19854259  0.69646722  0.07268005     0.08700
C1180       C  0.24906708  0.71829068  0.07023085     0.19600
C1181       C  0.24780446  0.78063365  0.05534693    -0.55200
C1182       C  0.26474316  0.76813973  0.07091929     0.08800
C1183       C  0.23571661  0.71775767  0.03319032    -0.54800
C1184       C  0.25768704  0.70838275  0.04753906     0.09300
H1185       H  0.14630592  0.69972188  0.05779504     0.13800
H1186       H  0.26464409  0.70869652  0.08229749    -0.00400
H1187       H  0.25517400  0.81467689  0.05388569     0.14200
H1188       H  0.22833910  0.70158796  0.01797316     0.13900
C1189       C  0.03815784  0.74654078  0.04333666     0.85700
C1190       C  0.03266862  0.78322746  0.05411169    -0.54500
C1191       C  0.00102081  0.76816798  0.06923418     0.08700
C1192       C  0.97577851  0.71722732  0.07115134     0.19600
C1193       C  0.04438589  0.72242719  0.06152675    -0.55200
C1194       C  0.01249546  0.70775810  0.07647088     0.08800
C1195       C  0.99246149  0.71291317  0.03457620    -0.54800
C1196       C  0.45656864  0.69573450  0.04842289     0.09300
H1197       H  0.05488915  0.81862064  0.05154254     0.13800
H1198       H  0.44601079  0.69857425  0.08275619    -0.00400
H1199       H  0.07474387  0.72327467  0.06400878     0.14200
H1200       H  0.98632304  0.70210910  0.01835840     0.13900
C1201       C  0.22787810  0.93080441  0.04744135     0.85700
C1202       C  0.26642630  0.94140160  0.06234430    -0.54500
C1203       C  0.28032446  0.97990537  0.07446634     0.08700
C1204       C  0.24819662  0.50148240  0.06976115     0.19600
C1205       C  0.19310010  0.92916809  0.06248475    -0.55200
C1206       C  0.20747020  0.96698127  0.07455170     0.08800
C1207       C  0.24571666  0.97380510  0.03512989    -0.54800
C1208       C  0.25271422  0.50940572  0.04616972     0.09300
H1209       H  0.28034881  0.92045447  0.06343722     0.13800
H1210       H  0.25810397  0.53246113  0.07908996    -0.00400
H1211       H  0.16215183  0.89865981  0.06534311     0.14200
H1212       H  0.25487837  0.97512875  0.01897525     0.13900
O1213       O  0.22801062  0.88931040  0.98471025    -0.82600
C1214       C  0.07579980  0.76557990  0.02754521     0.96800
O1215       O  0.10157935  0.80744745  0.02645937    -0.71700
O1216       O  0.17543391  0.88493734  0.02121920    -0.75300
Al1217     Al  0.13378499  0.83954772  0.00237818     1.49000
C1218       C  0.20829358  0.89154252  0.03155758     0.92100
O1219       O  0.22320862  0.79381519  0.01558876    -0.81500
O1220       O  0.17137491  0.74372087  0.97947196    -0.75000
Al1221     Al  0.21966682  0.83827286  0.00018709     1.90100
O1222       O  0.15546170  0.74114006  0.02174672    -0.74100
O1223       O  0.09658663  0.74863257  0.97267889    -0.74000
O1224       O  0.08127637  0.73975028  0.01547142    -0.79600
O1225       O  0.08523735  0.80076604  0.98483930    -0.77800
O1226       O  0.16089914  0.80889072  0.99978302    -1.14000
O1227       O  0.16219215  0.87613029  0.97843075    -0.73100
C1228       C  0.20300154  0.89966267  0.97584578     0.97600
C1229       C  0.19587382  0.75917896  0.02528163     0.94000
Al1230     Al  0.12920223  0.74888408  0.99730637     1.55600
O1231       O  0.22550482  0.86876386  0.02709519    -0.77800
C1232       C  0.07325582  0.76635749  0.97350458     0.98100
C1233       C  0.20816876  0.77074241  0.97130685     0.93000
O1234       O  0.22428252  0.81233427  0.97392851    -0.83100
C1235       C  0.20664059  0.72397887  0.19385515     0.79500
N1236       N  0.18403351  0.71239165  0.17534752    -0.78800
C1237       C  0.20569608  0.71701400  0.15702776     0.81900
N1238       N  0.24839464  0.73033837  0.15760848    -0.78800
C1239       C  0.26968569  0.73665894  0.17593980     0.82000
N1240       N  0.24912319  0.73630993  0.19378051    -0.80500
C1241       C  0.17503677  0.01671955  0.19335918     0.79500
N1242       N  0.20751437  0.06024055  0.19347266    -0.78800
C1243       C  0.23098170  0.07911106  0.17596863     0.81900
N1244       N  0.22073872  0.05410774  0.15822175    -0.78800
C1245       C  0.18810287  0.01095051  0.15763136     0.82000
N1246       N  0.16545332  0.99140981  0.17541488    -0.80500
C1247       C  0.02952082  0.88231988  0.18181318     0.79500
N1248       N  0.02319396  0.85477756  0.16502239    -0.78800
C1249       C  0.01889037  0.86716763  0.14543744     0.81900
N1250       N  0.02121526  0.90651513  0.14278608    -0.78800
C1251       C  0.02790562  0.93430842  0.15923996     0.82000
N1252       N  0.03150136  0.92156703  0.17872695    -0.80500
C1253       C  0.33716066  0.87660212  0.18519183     0.79500
N1254       N  0.31448046  0.84978956  0.16861410    -0.78800
C1255       C  0.33146448  0.86113100  0.14906581     0.81900
N1256       N  0.37027474  0.89932265  0.14612246    -0.78800
C1257       C  0.39311269  0.92664154  0.16248120     0.82000
N1258       N  0.37650462  0.91447823  0.18211379    -0.80500
C1259       C  0.36767516  0.94832069  0.29617997     0.85700
C1260       C  0.35283215  0.90745625  0.28155742    -0.54500
C1261       C  0.31344845  0.89216818  0.27137495     0.08700
C1262       C  0.29192225  0.91893539  0.27840599     0.19600
C1263       C  0.36610812  0.98306771  0.28235477    -0.55200
C1264       C  0.32742485  0.96747685  0.27182318     0.08800
C1265       C  0.33052569  0.93469745  0.31145450    -0.54800
C1266       C  0.29032894  0.91725714  0.30290435     0.09300
H1267       H  0.37615937  0.89810494  0.27699570     0.13800
H1268       H  0.25898329  0.90673728  0.27192807    -0.00400
H1269       H  0.39522247  0.01466998  0.27857830     0.14200
H1270       H  0.33642979  0.94101322  0.32786223     0.13900
C1271       C  0.07384669  0.63359066  0.29924979     0.85700
C1272       C  0.09765338  0.67175552  0.31541648    -0.54500
C1273       C  0.11981893  0.71353111  0.30730052     0.08700
C1274       C  0.12067639  0.71284344  0.28353961     0.19600
C1275       C  0.04793064  0.64729039  0.28526538    -0.55200
C1276       C  0.07295729  0.68899742  0.27684874     0.08800
C1277       C  0.11027565  0.63801721  0.28496996    -0.54800
C1278       C  0.13456446  0.67952219  0.27644816     0.09300
H1279       H  0.10048078  0.66533511  0.33152041     0.13800
H1280       H  0.14106252  0.74708687  0.27734679    -0.00400
H1281       H  0.01424640  0.62420337  0.28075432     0.14200
H1282       H  0.11306404  0.60977789  0.27997032     0.13900
C1283       C  0.09517569  0.89165822  0.30102127     0.85700
C1284       C  0.06586107  0.85974628  0.28307405    -0.54500
C1285       C  0.04876358  0.87830319  0.27023723     0.08700
C1286       C  0.06264952  0.92661171  0.27697805     0.19600
C1287       C  0.12946608  0.93387891  0.28969592    -0.55200
C1288       C  0.11270707  0.95035806  0.27590577     0.08800
C1289       C  0.06654566  0.90579893  0.31253918    -0.54800
C1290       C  0.05031949  0.92546761  0.30039458     0.09300
H1291       H  0.06303113  0.82790193  0.27950966     0.13800
H1292       H  0.04969164  0.94265095  0.26699045    -0.00400
H1293       H  0.16406840  0.94656483  0.29097711     0.14200
H1294       H  0.06025591  0.90137255  0.32917298     0.13900
O1295       O  0.24338324  0.91670020  0.36137034    -0.82600
C1296       C  0.13408385  0.75510400  0.31988835     0.96800
O1297       O  0.17413205  0.78396589  0.32179530    -0.71700
O1298       O  0.24651601  0.86360306  0.32911089    -0.75300
Al1299     Al  0.19842693  0.81927112  0.34666652     1.49000
C1300       C  0.25076680  0.89419916  0.31698966     0.92100
O1301       O  0.14908813  0.90470615  0.32684943    -0.81500
O1302       O  0.09869749  0.85369931  0.36048784    -0.75000
Al1303     Al  0.19293977  0.90422124  0.34415497     1.90100
O1304       O  0.10317412  0.83452507  0.31832921    -0.74100
O1305       O  0.10468238  0.78284074  0.37058638    -0.74000
O1306       O  0.10572439  0.76109139  0.32890270    -0.79600
O1307       O  0.15650767  0.76897258  0.36361502    -0.77800
O1308       O  0.16639186  0.84473496  0.34514642    -1.14000
O1309       O  0.22714350  0.85081901  0.37211159    -0.73100
C1310       C  0.25214206  0.89272478  0.37262392     0.97600
C1311       C  0.11712780  0.87557452  0.31591734     0.94000
Al1312     Al  0.10814408  0.81099879  0.34460884     1.55600
O1313       O  0.22426983  0.90773523  0.31851815    -0.77800
C1314       C  0.12066553  0.75840296  0.37252790     0.98100
C1315       C  0.12332099  0.88990007  0.37063254     0.93000
O1316       O  0.16443472  0.90860979  0.36918575    -0.83100
C1317       C  0.02355824  0.73417055  0.20042152     0.79500
N1318       N  0.03200660  0.72328729  0.18109304    -0.78800
C1319       C  0.51020829  0.72661423  0.16343026     0.81900
N1320       N  0.48445204  0.74419114  0.16604786    -0.78800
C1321       C  0.47598456  0.75445626  0.18561905     0.82000
N1322       N  0.49474773  0.74796277  0.20222116    -0.80500
C1323       C  0.33522569  0.05213901  0.19157495     0.79500
N1324       N  0.33469404  0.03502948  0.17196461    -0.78800
C1325       C  0.34057849  0.55844740  0.15526848     0.81900
N1326       N  0.35237179  0.60201150  0.15812546    -0.78800
C1327       C  0.35464361  0.61992127  0.17754390     0.82000
N1328       N  0.34454560  0.59320225  0.19443240    -0.80500
C1329       C  0.45191895  0.86299528  0.63232587     0.85700
C1330       C  0.48056077  0.86258887  0.61446747    -0.54500
C1331       C  0.46014548  0.82453109  0.60218877     0.08700
C1332       C  0.41288380  0.79013559  0.60926593     0.19600
C1333       C  0.41024871  0.85485594  0.62102720    -0.55200
C1334       C  0.39025134  0.81743484  0.60835250     0.08800
C1335       C  0.43771026  0.82011520  0.64439720    -0.54800
C1336       C  0.41554734  0.78144875  0.63285892     0.09300
H1337       H  0.00916908  0.89178295  0.60936862     0.13800
H1338       H  0.39743385  0.75928090  0.59937073    -0.00400
H1339       H  0.40010304  0.87916643  0.62147632     0.14200
H1340       H  0.44357025  0.82035332  0.66105417     0.13900
C1341       C  0.45777586  0.55907509  0.63511460     0.85700
C1342       C  0.42112486  0.52498714  0.62052959    -0.54500
C1343       C  0.40397858  0.54290321  0.60795291     0.08700
C1344       C  0.42319900  0.59295142  0.61195307     0.19600
C1345       C  0.49088451  0.59521104  0.62054918    -0.55200
C1346       C  0.47287375  0.61247859  0.60771911     0.08800
C1347       C  0.43901392  0.58294021  0.64745380    -0.54800
C1348       C  0.41881174  0.59893092  0.63577979     0.09300
H1349       H  0.41177567  0.98940520  0.61787957     0.13800
H1350       H  0.40720528  0.60640447  0.60224834    -0.00400
H1351       H  0.02328628  0.60299123  0.61907044     0.14200
H1352       H  0.44413932  0.58959396  0.66400531     0.13900
C1353       C  0.13129609  0.54446777  0.63493489     0.85700
C1354       C  0.13431734  0.57023443  0.61481915    -0.54500
C1355       C  0.16625713  0.57457681  0.60088100     0.08700
C1356       C  0.19065621  0.55169936  0.60863213     0.19600
C1357       C  0.12445849  0.49988064  0.62650252    -0.55200
C1358       C  0.15261952  0.50267109  0.61157764     0.08800
C1359       C  0.17778683  0.57036493  0.64361015    -0.54800
C1360       C  0.20907110  0.57314674  0.63045699     0.09300
H1361       H  0.11072535  0.57963249  0.61104610     0.13800
H1362       H  0.21704102  0.55476703  0.59828586    -0.00400
H1363       H  0.09312992  0.96967327  0.62872880     0.14200
H1364       H  0.18651573  0.59022185  0.65786159     0.13900
O1365       O  0.08577427  0.55247588  0.69648319    -0.82600
C1366       C  0.47164678  0.90404807  0.64676994     0.96800
O1367       O  0.51132742  0.92442852  0.65227960    -0.71700
O1368       O  0.08488389  0.99933780  0.66258574    -0.75300
Al1369     Al  0.03476803  0.95698238  0.67826385     1.49000
C1370       C  0.09578130  0.53289381  0.65143819     0.92100
O1371       O  0.00636519  0.56165341  0.66109712    -0.81500
O1372       O  0.44239567  0.99962764  0.69154610    -0.75000
Al1373     Al  0.04148508  0.54928666  0.67855913     1.90100
O1374       O  0.45525895  0.99335322  0.64934866    -0.74100
O1375       O  0.43765476  0.92222462  0.69648251    -0.74000
O1376       O  0.44607303  0.91460361  0.65494910    -0.79600
O1377       O  0.98932753  0.90807050  0.69381413    -0.77800
O1378       O  0.00857894  0.98883454  0.67683992    -1.14000
O1379       O  0.06406709  0.98403302  0.70450963    -0.73100
C1380       C  0.09145725  0.52499458  0.70638810     0.97600
C1381       C  0.47505064  0.53759270  0.64908769     0.94000
Al1382     Al  0.45068696  0.96007345  0.67339256     1.55600
O1383       O  0.07584555  0.55379852  0.65381956    -0.77800
C1384       C  0.45223594  0.89706300  0.70019030     0.98100
C1385       C  0.46776046  0.53447028  0.70361482     0.93000
O1386       O  0.00974805  0.55160312  0.70279555    -0.83100
C1387       C  0.07687249  0.89353957  0.53619577     0.79500
N1388       N  0.07768102  0.91474835  0.51814452    -0.78800
C1389       C  0.08066888  0.89794889  0.49902352     0.81900
N1390       N  0.08702684  0.86300968  0.49843482    -0.78800
C1391       C  0.09316173  0.84669911  0.51626817     0.82000
N1392       N  0.08093588  0.85712943  0.53456766    -0.80500
C1393       C  0.34038122  0.46394107  0.52602787     0.79500
N1394       N  0.35867486  0.48379157  0.50750032    -0.78800
C1395       C  0.33237262  0.96601269  0.48927089     0.81900
N1396       N  0.29107926  0.93036376  0.49043792    -0.78800
C1397       C  0.27423416  0.91057635  0.50890790     0.82000
N1398       N  0.29945900  0.42774570  0.52613055    -0.80500
C1399       C  0.45108168  0.61400837  0.52423005     0.79500
N1400       N  0.40700666  0.59422768  0.52372063    -0.78800
C1401       C  0.38499109  0.58256895  0.50519073     0.81900
N1402       N  0.90606216  0.59047091  0.48646037    -0.78800
C1403       C  0.95002356  0.61268055  0.48668604     0.82000
N1404       N  0.47356509  0.62313796  0.50595340    -0.80500
C1405       C  0.95676918  0.78204096  0.47818776     0.79500
N1406       N  0.97328279  0.80485552  0.49672666    -0.78800
C1407       C  0.95633685  0.78356595  0.51517340     0.81900
N1408       N  0.92321017  0.74048563  0.51481322    -0.78800
C1409       C  0.90637499  0.71774687  0.49653113     0.82000
N1410       N  0.92355094  0.73880842  0.47825369    -0.80500
C1411       C  0.32132400  0.79689511  0.52524082     0.79500
N1412       N  0.32652709  0.82869210  0.51121424    -0.78800
C1413       C  0.32062411  0.81818231  0.49013242     0.81900
N1414       N  0.31044508  0.77701675  0.48340186    -0.78800
C1415       C  0.30599933  0.74586066  0.49696911     0.82000
N1416       N  0.31141885  0.75624989  0.51764578    -0.80500
C1417       C  0.15519913  0.59163327  0.51142514     0.79500
N1418       N  0.13653955  0.61196826  0.50188880    -0.78800
C1419       C  0.14766367  0.62508151  0.48170831     0.81900
N1420       N  0.17820089  0.62001102  0.47159973    -0.78800
C1421       C  0.19724745  0.60040873  0.48106320     0.82000
N1422       N  0.18415257  0.58534128  0.50066702    -0.80500
C1423       C  0.05324199  0.94083153  0.38024159     0.85700
C1424       C  0.01820352  0.89300381  0.38706097    -0.54500
C1425       C  0.03259206  0.87349068  0.40072031     0.08700
C1426       C  0.08246889  0.90207330  0.40372714     0.19600
C1427       C  0.07324696  0.96621048  0.40112055    -0.55200
C1428       C  0.08789135  0.94531898  0.41379259     0.08800
C1429       C  0.08895317  0.93539406  0.36996705    -0.54800
C1430       C  0.10312729  0.91317005  0.38158832     0.09300
H1431       H  0.98463235  0.87785711  0.38223053     0.13800
H1432       H  0.09693673  0.88708485  0.41336394    -0.00400
H1433       H  0.07243437  0.99560210  0.40598089     0.14200
H1434       H  0.10030634  0.94593323  0.35414881     0.13900
C1435       C  0.05059406  0.63132823  0.37797267     0.85700
C1436       C  0.08440804  0.63280769  0.39287751    -0.54500
C1437       C  0.09920018  0.66583424  0.40769873     0.08700
C1438       C  0.08424038  0.69924096  0.40418292     0.19600
C1439       C  0.01684129  0.63317091  0.39232741    -0.55200
C1440       C  0.03408947  0.66886621  0.40641357     0.08800
C1441       C  0.07304372  0.67679075  0.36754350    -0.54800
C1442       C  0.09325484  0.71250064  0.38096733     0.09300
H1443       H  0.09118978  0.60601558  0.39354432     0.13800
H1444       H  0.10002875  0.72918886  0.41467209    -0.00400
H1445       H  0.48403438  0.60206225  0.39339790     0.14200
H1446       H  0.06664765  0.68140543  0.35163802     0.13900
C1447       C  0.37548330  0.94663542  0.37968754     0.85700
C1448       C  0.37866931  0.98719999  0.39129141    -0.54500
C1449       C  0.34580652  0.97662497  0.40527270     0.08700
C1450       C  0.31086164  0.92639465  0.40517129     0.19600
C1451       C  0.37188769  0.91567666  0.39758286    -0.55200
C1452       C  0.33784876  0.90494767  0.41124915     0.08800
C1453       C  0.33051846  0.92153055  0.36943613    -0.54800
C1454       C  0.29666296  0.91289681  0.38207152     0.09300
H1455       H  0.40996394  0.51661200  0.39130699     0.13800
H1456       H  0.28321667  0.91813092  0.41583258    -0.00400
H1457       H  0.39532488  0.90537055  0.39986311     0.14200
H1458       H  0.32479434  0.90578908  0.35422731     0.13900
O1459       O  0.05881476  0.56205768  0.31162004    -0.82600
C1460       C  0.41149482  0.96114876  0.36343278     0.96800
O1461       O  0.41859871  0.99237929  0.35119327    -0.71700
O1462       O  0.99268921  0.56519426  0.36077502    -0.75300
Al1463     Al  0.46751768  0.53135006  0.33478013     1.49000
C1464       C  0.03319608  0.59089168  0.36327940     0.92100
O1465       O  0.05362236  0.00299078  0.36318215    -0.81500
O1466       O  0.99112022  0.93549655  0.31146439    -0.75000
Al1467     Al  0.05239001  0.53147413  0.33718603     1.90100
O1468       O  0.00230874  0.93491928  0.35412106    -0.74100
O1469       O  0.41552446  0.93644026  0.31852188    -0.74000
O1470       O  0.43298022  0.94197189  0.36141001    -0.79600
O1471       O  0.43915737  0.00494803  0.30887866    -0.77800
O1472       O  0.99430768  0.00149020  0.33633021    -1.14000
O1473       O  0.01181031  0.58225169  0.31938291    -0.73100
C1474       C  0.04582562  0.58918078  0.30987433     0.97600
C1475       C  0.03494281  0.96110421  0.36546523     0.94000
Al1476     Al  0.46311377  0.94219503  0.33620026     1.55600
O1477       O  0.05960575  0.58274389  0.35365383    -0.77800
C1478       C  0.41061177  0.96389632  0.30781540     0.98100
C1479       C  0.03196602  0.95113797  0.31066880     0.93000
O1480       O  0.05788535  0.98618244  0.32116312    -0.83100
C1481       C  0.42363627  0.85407386  0.71191847     0.85700
C1482       C  0.39398837  0.85902210  0.72750517    -0.54500
C1483       C  0.37239522  0.82424537  0.74073546     0.08700
C1484       C  0.37381206  0.78237200  0.73282423     0.19600
C1485       C  0.44840745  0.83645089  0.72474523    -0.55200
C1486       C  0.42144676  0.79822754  0.73600393     0.08800
C1487       C  0.39195541  0.81442197  0.69814450    -0.54800
C1488       C  0.36731530  0.77552539  0.70864137     0.09300
H1489       H  0.39713231  0.89119047  0.73063951     0.13800
H1490       H  0.35023684  0.75201355  0.74113258    -0.00400
H1491       H  0.48365231  0.85511484  0.72635747     0.14200
H1492       H  0.39235809  0.81567676  0.68121371     0.13900
C1493       C  0.13606462  0.54275869  0.71648656     0.85700
C1494       C  0.17015542  0.55676924  0.69908048    -0.54500
C1495       C  0.21212600  0.57638665  0.70568272     0.08700
C1496       C  0.21637722  0.57859755  0.72932612     0.19600
C1497       C  0.14330826  0.51146545  0.73016111    -0.55200
C1498       C  0.18560242  0.53106083  0.73714614     0.08800
C1499       C  0.15215291  0.58485506  0.73058389    -0.54800
C1500       C  0.19466595  0.60386559  0.73762409     0.09300
H1501       H  0.16061317  0.54860550  0.68299996     0.13800
H1502       H  0.25103554  0.59318150  0.73376635    -0.00400
H1503       H  0.11713764  0.47929421  0.73548632     0.14200
H1504       H  0.12945154  0.59387128  0.73671983     0.13900
C1505       C  0.44702162  0.55585847  0.71674575     0.85700
C1506       C  0.48103164  0.60041536  0.72718659    -0.54500
C1507       C  0.46386992  0.61937151  0.73979817     0.08700
C1508       C  0.41390414  0.59560416  0.73793496     0.19600
C1509       C  0.41713226  0.52787707  0.73481458    -0.55200
C1510       C  0.39966988  0.54833350  0.74692126     0.08800
C1511       C  0.41754031  0.56601296  0.70391906    -0.54800
C1512       C  0.40215173  0.58954307  0.71406056     0.09300
H1513       H  0.51503328  0.61015759  0.72858111     0.13800
H1514       H  0.40137311  0.61477859  0.74577775    -0.00400
H1515       H  0.41527426  0.49703527  0.73876197     0.14200
H1516       H  0.40665685  0.55231775  0.68835104     0.13900
O1517       O  0.35129186  0.59374009  0.64492445    -0.82600
C1518       C  0.35749361  0.73359630  0.69697645     0.96800
O1519       O  0.38665332  0.72354331  0.69518723    -0.71700
O1520       O  0.38957711  0.64840942  0.70241349    -0.75300
Al1521     Al  0.39427614  0.68266975  0.67720550     1.49000
C1522       C  0.37908202  0.60783860  0.70141506     0.92100
O1523       O  0.27596625  0.58121742  0.69111371    -0.81500
O1524       O  0.28028962  0.63708154  0.63774367    -0.75000
Al1525     Al  0.31404212  0.58893477  0.66816157     1.90100
O1526       O  0.25687529  0.62861443  0.68005053    -0.74100
O1527       O  0.34899735  0.71913085  0.64572100    -0.74000
O1528       O  0.32266903  0.71234491  0.68659266    -0.79600
O1529       O  0.41034832  0.72359482  0.65433616    -0.77800
O1530       O  0.33812113  0.64855294  0.66951621    -1.14000
O1531       O  0.41205520  0.64821098  0.65974379    -0.73100
C1532       C  0.39280295  0.61587515  0.64648723     0.97600
C1533       C  0.25036355  0.59627595  0.69152457     0.94000
Al1534     Al  0.30535268  0.67192245  0.66310856     1.55600
O1535       O  0.35287438  0.58339160  0.68716798    -0.77800
C1536       C  0.39004148  0.73776197  0.64405134     0.98100
C1537       C  0.25536199  0.59531781  0.63810647     0.93000
O1538       O  0.26582342  0.57344165  0.64947001    -0.83100
C1539       C  0.40828888  0.51990143  0.83500281     0.79500
N1540       N  0.38259142  0.51363707  0.85196758    -0.78800
C1541       C  0.39544167  0.50894285  0.87134474     0.81900
N1542       N  0.43420663  0.01077172  0.87265349    -0.78800
C1543       C  0.46018002  0.01734521  0.85603288     0.82000
N1544       N  0.44665093  0.52119754  0.83768053    -0.80500
C1545       C  0.41882170  0.86196177  0.82981455     0.79500
N1546       N  0.46169542  0.89218160  0.83352939    -0.78800
C1547       C  0.47863614  0.90264331  0.85320853     0.81900
N1548       N  0.45187746  0.88085672  0.86953505    -0.78800
C1549       C  0.40897156  0.85004780  0.86658741     0.82000
N1550       N  0.39231125  0.84071365  0.84655630    -0.80500
C1551       C  0.24502668  0.98541309  0.80920076     0.79500
N1552       N  0.23033763  0.94212947  0.80442111    -0.78800
C1553       C  0.21352267  0.91077415  0.81908679     0.81900
N1554       N  0.21693344  0.92377303  0.83940358    -0.78800
C1555       C  0.23108994  0.96654522  0.84509863     0.82000
N1556       N  0.24622111  0.49750615  0.82883922    -0.80500
C1557       C  0.97563699  0.76249409  0.81291112     0.79500
N1558       N  0.01389115  0.76726456  0.80668963    -0.78800
C1559       C  0.04192284  0.76695588  0.82048200     0.81900
N1560       N  0.03108346  0.76189129  0.84106655    -0.78800
C1561       C  0.99320226  0.75763147  0.84779524     0.82000
N1562       N  0.46430617  0.75819221  0.83375494    -0.80500
C1563       C  0.25248535  0.70428399  0.81645037     0.79500
N1564       N  0.24861795  0.74081792  0.81816248    -0.78800
C1565       C  0.24394698  0.75562223  0.83716210     0.81900
N1566       N  0.25614368  0.74246004  0.85417797    -0.78800
C1567       C  0.26027479  0.70619384  0.85307422     0.82000
N1568       N  0.25612381  0.68550831  0.83423793    -0.80500
C1569       C  0.50398081  0.65444655  0.82757331     0.79500
N1570       N  0.54632350  0.68698225  0.82883078    -0.78800
C1571       C  0.06611326  0.69931661  0.84789455     0.81900
N1572       N  0.04372929  0.68112951  0.86545521    -0.78800
C1573       C  0.50342541  0.64854176  0.86451623     0.82000
N1574       N  0.48188818  0.63383548  0.84558096    -0.80500
C1575       C  0.27504171  0.71304883  0.96903973     0.85700
C1576       C  0.24347409  0.67941379  0.95274475    -0.54500
C1577       C  0.23283591  0.69787579  0.93708519     0.08700
C1578       C  0.24983763  0.74828156  0.94096725     0.19600
C1579       C  0.31255987  0.74910579  0.95587103    -0.55200
C1580       C  0.30058792  0.76941816  0.94114618     0.08800
C1581       C  0.25240230  0.73670933  0.97795837    -0.54800
C1582       C  0.23645366  0.75288824  0.96367414     0.09300
H1583       H  0.23873999  0.64623324  0.95091168     0.13800
H1584       H  0.23650386  0.76142692  0.92951912    -0.00400
H1585       H  0.34452193  0.75326781  0.95682793     0.14200
H1586       H  0.25230848  0.74457285  0.99422267     0.13900
C1587       C  0.26849322  0.52220015  0.96611333     0.85700
C1588       C  0.30347421  0.51353823  0.95716078    -0.54500
C1589       C  0.28808004  0.47677078  0.94406882     0.08700
C1590       C  0.23942240  0.95361152  0.94245266     0.19600
C1591       C  0.24472938  0.52428961  0.94673747    -0.55200
C1592       C  0.23018136  0.48797242  0.93340229     0.08800
C1593       C  0.23482253  0.47904374  0.97661190    -0.54800
C1594       C  0.22283887  0.94365679  0.96526406     0.09300
H1595       H  0.33762343  0.53919059  0.95825623     0.13800
H1596       H  0.22501638  0.92221071  0.93302802    -0.00400
H1597       H  0.24279053  0.55337409  0.94332166     0.14200
H1598       H  0.22258341  0.47828043  0.99214350     0.13900
C1599       C  0.44680171  0.70538005  0.96937262     0.85700
C1600       C  0.44848934  0.73341511  0.95067594    -0.54500
C1601       C  0.48166815  0.74250891  0.93676464     0.08700
C1602       C  0.01015005  0.72582223  0.94294646     0.19600
C1603       C  0.44336597  0.66351385  0.95882757    -0.55200
C1604       C  0.47506019  0.67233518  0.94460755     0.08800
C1605       C  0.49270946  0.73192187  0.97879863    -0.54800
C1606       C  0.02717341  0.74306196  0.96541960     0.09300
H1607       H  0.42362415  0.74143454  0.94768302     0.13800
H1608       H  0.03635694  0.73281246  0.93149708    -0.00400
H1609       H  0.41549207  0.62996895  0.96081297     0.14200
H1610       H  0.49895785  0.74622877  0.99447405     0.13900
O1611       O  0.40275521  0.70764075  0.03293935    -0.82600
C1612       C  0.28684313  0.56181164  0.98121893     0.96800
O1613       O  0.32711387  0.58443760  0.98536574    -0.71700
O1614       O  0.40137037  0.65619075  0.99560517    -0.75300
Al1615     Al  0.35356237  0.61376300  0.01137929     1.49000
C1616       C  0.41111641  0.69110394  0.98587433     0.92100
O1617       O  0.31999127  0.71563694  0.99768112    -0.81500
O1618       O  0.25934749  0.65239065  0.02831338    -0.75000
Al1619     Al  0.35669082  0.70446860  0.01530330     1.90100
O1620       O  0.26977289  0.64894560  0.98642337    -0.74100
O1621       O  0.25830954  0.57652852  0.03374663    -0.74000
O1622       O  0.26089018  0.56938474  0.99106403    -0.79600
O1623       O  0.31115392  0.56407609  0.02675692    -0.77800
O1624       O  0.32599305  0.64434887  0.01254359    -1.14000
O1625       O  0.38534372  0.63836411  0.03700819    -0.73100
C1626       C  0.41147475  0.67957432  0.04018640     0.97600
C1627       C  0.28904649  0.69120265  0.98526023     0.94000
Al1628     Al  0.26767005  0.61473066  0.01021825     1.55600
O1629       O  0.39201099  0.71223421  0.99027785    -0.77800
C1630       C  0.27581271  0.55332050  0.03581333     0.98100
C1631       C  0.28170401  0.68629624  0.03976109     0.93000
O1632       O  0.32328683  0.70501692  0.04012462    -0.83100
C1633       C  0.44412890  0.62112782  0.89096047    -0.21100
C1634       C  0.48482359  0.62840600  0.88511832    -0.07600
C1635       C  0.51341044  0.63111737  0.90121981     0.13200
C1636       C  0.50643593  0.63945766  0.92189232    -0.21100
C1637       C  0.46971668  0.64122629  0.92716335    -0.07600
C1638       C  0.43566865  0.62615495  0.91214175     0.13200
C1639       C  0.39097884  0.61607848  0.91805280    -0.24500
H1640       H  0.42050704  0.61524001  0.87892512     0.14500
H1641       H  0.03053621  0.64977794  0.93363339     0.14500
C1642       C  0.05061998  0.62797552  0.89711150    -0.24400
H1643       H  0.37012865  0.60697817  0.90391599     0.04800
H1644       H  0.39171275  0.64474294  0.92598175     0.08000
H1645       H  0.37592515  0.58742816  0.92879668     0.08000
H1646       H  0.08003993  0.66202380  0.89829045     0.08000
H1647       H  0.55295335  0.61605998  0.88113876     0.08000
H1648       H  0.05340795  0.60638908  0.90874165     0.04700
C1649       C  0.20788489  0.66376595  0.88013593    -0.21100
C1650       C  0.25063509  0.68178220  0.87261940    -0.07600
C1651       C  0.28435089  0.69231574  0.88677808     0.13200
C1652       C  0.27600971  0.69093455  0.90827012    -0.21100
C1653       C  0.23529525  0.68260258  0.91557313    -0.07600
C1654       C  0.20009538  0.66554985  0.90158577     0.13200
C1655       C  0.15512365  0.65142818  0.90914342    -0.24500
H1656       H  0.18163867  0.65436094  0.86909755     0.14500
H1657       H  0.30261805  0.70101727  0.91919398     0.14500
C1658       C  0.32940562  0.70780375  0.87902962    -0.24400
H1659       H  0.13145940  0.63775025  0.89597237     0.04800
H1660       H  0.15487536  0.68043911  0.91631935     0.08000
H1661       H  0.14464474  0.62492126  0.92097570     0.08000
H1662       H  0.34221622  0.73899492  0.87004705     0.08000
H1663       H  0.32752101  0.68123109  0.86854815     0.08000
H1664       H  0.35227520  0.71431160  0.89214689     0.04700
C1665       C  0.14351293  0.76133382  0.85123442    -0.21100
C1666       C  0.11223490  0.71580662  0.84819780    -0.07600
C1667       C  0.12507154  0.68516567  0.84303217     0.13200
C1668       C  0.16776581  0.70119478  0.83807962    -0.21100
C1669       C  0.19964161  0.74667387  0.83999063    -0.07600
C1670       C  0.18794737  0.77709201  0.84761716     0.13200
C1671       C  0.22096546  0.82540461  0.85176526    -0.24500
H1672       H  0.13325569  0.78446761  0.85580316     0.14500
H1673       H  0.17640292  0.67685037  0.83349838     0.14500
C1674       C  0.09506733  0.63502185  0.84249595    -0.24400
H1675       H  0.21118797  0.84636441  0.84369784     0.04800
H1676       H  0.25366467  0.83473338  0.84584427     0.08000
H1677       H  0.22249668  0.83273377  0.86886056     0.08000
H1678       H  0.59499871  0.62217893  0.82672833     0.08000
H1679       H  0.56051993  0.62539706  0.84629926     0.08000
H1680       H  0.10683715  0.61984282  0.85379858     0.04700
C1681       C  0.02261163  0.79120225  0.88290333    -0.21100
C1682       C  0.98697272  0.75986382  0.87061197    -0.07600
C1683       C  0.44802583  0.72822443  0.88018658     0.13200
C1684       C  0.44521784  0.72924605  0.90215960    -0.21100
C1685       C  0.48236129  0.75587277  0.91466383    -0.07600
C1686       C  0.02067566  0.79067569  0.90489670     0.13200
C1687       C  0.06070658  0.82413928  0.91705112    -0.24500
H1688       H  0.05277478  0.81520041  0.87530250     0.14500
H1689       H  0.41463780  0.70652210  0.90956545     0.14500
C1690       C  0.41051485  0.69200446  0.86765312    -0.24400
H1691       H  0.07021045  0.85847164  0.91247467     0.04800
H1692       H  0.08799407  0.81877753  0.91343848     0.08000
H1693       H  0.05533566  0.82183207  0.93425036     0.08000
H1694       H  0.42166222  0.67270176  0.85832077     0.08000
H1695       H  0.39790560  0.70697331  0.85675445     0.08000
H1696       H  0.38365404  0.66818746  0.87793552     0.04700
C1697       C  0.25273290  0.51673295  0.87540284    -0.21100
C1698       C  0.22402100  0.97576338  0.86737237    -0.07600
C1699       C  0.19088804  0.94214820  0.88029147     0.13200
C1700       C  0.19071264  0.95023685  0.90190088    -0.21100
C1701       C  0.22271304  0.48897602  0.91031930    -0.07600
C1702       C  0.25119316  0.52490471  0.89707460     0.13200
C1703       C  0.28038289  0.57180308  0.90532974    -0.24500
H1704       H  0.27630066  0.54340701  0.86557391     0.14500
H1705       H  0.16776518  0.92347070  0.91189935     0.14500
C1706       C  0.15511635  0.89727555  0.87196641    -0.24400
H1707       H  0.30135273  0.59477505  0.89284421     0.04800
H1708       H  0.30171267  0.57222014  0.91786824     0.08000
H1709       H  0.26024180  0.58507471  0.91149866     0.08000
H1710       H  0.16836440  0.87629634  0.86673788     0.08000
H1711       H  0.13758736  0.90207825  0.85905416     0.08000
H1712       H  0.13049832  0.87800754  0.88416197     0.04700
C1713       C  0.16300013  0.83052455  0.80818622    -0.21100
C1714       C  0.17071867  0.87307807  0.81368483    -0.07600
C1715       C  0.13524259  0.87939552  0.81657707     0.13200
C1716       C  0.09525002  0.84285933  0.82035403    -0.21100
C1717       C  0.08691438  0.80007742  0.81629225    -0.07600
C1718       C  0.11981524  0.79377909  0.80767878     0.13200
C1719       C  0.11045606  0.75092377  0.79718794    -0.24500
H1720       H  0.18998266  0.82620140  0.80412187     0.14500
H1721       H  0.06959806  0.84790410  0.82604645     0.14500
C1722       C  0.13816575  0.92386401  0.81536304    -0.24400
H1723       H  0.12335924  0.75791906  0.78093636     0.04800
H1724       H  0.07499770  0.72653852  0.79592703     0.08000
H1725       H  0.12669087  0.73620941  0.80571421     0.08000
H1726       H  0.15041407  0.93765836  0.79964474     0.08000
H1727       H  0.15887017  0.94737078  0.82783520     0.08000
H1728       H  0.10581814  0.92060081  0.81705456     0.04700
C1729       C  0.39975870  0.82791280  0.90431651    -0.21100
C1730       C  0.38091728  0.83139370  0.88571949    -0.07600
C1731       C  0.33855721  0.82434841  0.88713226     0.13200
C1732       C  0.31307649  0.80457267  0.90515659    -0.21100
C1733       C  0.33077069  0.79779940  0.92345403    -0.07600
C1734       C  0.37665890  0.81565802  0.92341467     0.13200
C1735       C  0.40373264  0.82831872  0.94314287    -0.24500
H1736       H  0.43395237  0.83820890  0.90440264     0.14500
H1737       H  0.27956471  0.79585069  0.90473244     0.14500
C1738       C  0.32209482  0.84263848  0.87093994    -0.24400
H1739       H  0.43145048  0.86336107  0.94207645     0.04800
H1740       H  0.41715368  0.80631660  0.94500736     0.08000
H1741       H  0.38527159  0.82767416  0.95728722     0.08000
H1742       H  0.31780975  0.82571873  0.85556593     0.08000
H1743       H  0.34580508  0.87894280  0.86923669     0.08000
H1744       H  0.29065269  0.83865688  0.87586332     0.04700
C1745       C  0.29684140  0.45670625  0.90709626    -0.21100
C1746       C  0.31605736  0.47515136  0.92681814    -0.07600
C1747       C  0.36209447  0.49778034  0.92830483     0.13200
C1748       C  0.38680994  0.51039951  0.90988024    -0.21100
C1749       C  0.36702763  0.49663832  0.88998448    -0.07600
C1750       C  0.32178087  0.46615887  0.88883965     0.13200
C1751       C  0.29987927  0.94362560  0.86842406    -0.24500
H1752       H  0.26274360  0.93993546  0.90500615     0.14500
H1753       H  0.42201594  0.53039911  0.91118660     0.14500
C1754       C  0.38623453  0.50713739  0.94881009    -0.24400
H1755       H  0.31480743  0.92482894  0.86221710     0.04800
H1756       H  0.26472179  0.91923965  0.87098182     0.08000
H1757       H  0.30281492  0.96766864  0.85656708     0.08000
H1758       H  0.36390196  0.49128334  0.96224526     0.08000
H1759       H  0.40688555  0.54377066  0.95166053     0.08000
H1760       H  0.40765747  0.49296920  0.94806304     0.04700
C1761       C  0.51849408  0.00663047  0.84061725    -0.21100
C1762       C  0.49778442  0.01076915  0.85858678    -0.07600
C1763       C  0.50597180  0.99617495  0.87785540     0.13200
C1764       C  0.51999686  0.96539434  0.87688025    -0.21100
C1765       C  0.51984761  0.94651311  0.85727452    -0.07600
C1766       C  0.53381876  0.97707103  0.84077683     0.13200
C1767       C  0.56150858  0.97606155  0.82334412    -0.24500
H1768       H  0.51973019  0.02287671  0.82626904     0.14500
H1769       H  0.51973768  0.94863128  0.89105028     0.14500
C1770       C  0.49817394  0.00960290  0.89923247    -0.24400
H1771       H  0.56664571  0.00022440  0.81097184     0.04800
H1772       H  0.54622695  0.94242797  0.81620560     0.08000
H1773       H  0.59377057  0.98496819  0.82975029     0.08000
H1774       H  0.47065516  0.98023962  0.90695901     0.08000
H1775       H  0.49121089  0.03677411  0.89863076     0.08000
H1776       H  0.52797794  0.02226108  0.90897965     0.04700
C1777       C  0.38250011  0.49457874  0.77715207    -0.21100
C1778       C  0.38696645  0.53481598  0.76992341    -0.07600
C1779       C  0.38318366  0.56236202  0.78565108     0.13200
C1780       C  0.38983325  0.55713644  0.80700034    -0.21100
C1781       C  0.39335456  0.52114362  0.81340733    -0.07600
C1782       C  0.38336901  0.48672082  0.79869374     0.13200
C1783       C  0.37018106  0.44077082  0.80600995    -0.24500
H1784       H  0.37712209  0.46833615  0.76616798     0.14500
H1785       H  0.39151949  0.58087320  0.81870294     0.14500
C1786       C  0.36517029  0.59183880  0.78135290    -0.24400
H1787       H  0.36365473  0.41732078  0.79263612     0.04800
H1788       H  0.33615917  0.92744921  0.81492958     0.08000
H1789       H  0.39565266  0.44207865  0.81616838     0.08000
H1790       H  0.34710273  0.58291183  0.76631102     0.08000
H1791       H  0.39124473  0.62751386  0.78196855     0.08000
H1792       H  0.34066690  0.58658047  0.79350447     0.04700
C1793       C  0.49203366  0.60633861  0.77277473    -0.21100
C1794       C  0.48205112  0.63383258  0.76139851    -0.07600
C1795       C  0.47854253  0.66689761  0.77223678     0.13200
C1796       C  0.47747807  0.66679399  0.79434929    -0.21100
C1797       C  0.48725009  0.63938823  0.80592054    -0.07600
C1798       C  0.49642644  0.61003708  0.79459699     0.13200
C1799       C  0.51099732  0.58188969  0.80474745    -0.24500
H1800       H  0.49509723  0.58057131  0.76471188     0.14500
H1801       H  0.47036716  0.68894063  0.80274719     0.14500
C1802       C  0.47972192  0.70389246  0.76013964    -0.24400
H1803       H  0.48781600  0.54617480  0.80070753     0.04800
H1804       H  0.51241089  0.58600867  0.82190460     0.08000
H1805       H  0.54377644  0.59121233  0.79883306     0.08000
H1806       H  0.45180569  0.69085828  0.74922092     0.08000
H1807       H  0.51014108  0.72078963  0.75075794     0.08000
H1808       H  0.48018850  0.72946157  0.77060225     0.04700
C1809       C  0.21210772  0.52353407  0.79329466    -0.21100
C1810       C  0.24346333  0.51129262  0.79080430    -0.07600
C1811       C  0.25411087  0.50421736  0.77011788     0.13200
C1812       C  0.23370303  0.50971579  0.75290165    -0.21100
C1813       C  0.19944556  0.51717241  0.75563365    -0.07600
C1814       C  0.18744600  0.52277826  0.77612234     0.13200
C1815       C  0.14761947  0.52587007  0.78014572    -0.24500
H1816       H  0.20209575  0.52682935  0.80898097     0.14500
H1817       H  0.24350534  0.50647816  0.73713797     0.14500
C1818       C  0.28148254  0.98433116  0.76668052    -0.24400
H1819       H  0.14332274  0.52994946  0.79712858     0.04800
H1820       H  0.11812687  0.49473307  0.77446671     0.08000
H1821       H  0.14993502  0.55467432  0.77212656     0.08000
H1822       H  0.26215299  0.94963133  0.76030860     0.08000
H1823       H  0.29972028  0.48472890  0.77993915     0.08000
H1824       H  0.30598800  0.00516630  0.75476789     0.04700
C1825       C  0.24215810  0.63021929  0.76985237    -0.21100
C1826       C  0.21294996  0.63437603  0.75658484    -0.07600
C1827       C  0.19912298  0.66390258  0.76306396     0.13200
C1828       C  0.21007595  0.68324765  0.78321235    -0.21100
C1829       C  0.23892614  0.67859333  0.79635115    -0.07600
C1830       C  0.25572934  0.65223632  0.78932774     0.13200
C1831       C  0.28929509  0.64849404  0.80176842    -0.24500
H1832       H  0.25411990  0.60860768  0.76570448     0.14500
H1833       H  0.19755298  0.70423777  0.78821109     0.14500
C1834       C  0.17558933  0.67859222  0.74890657    -0.24400
H1835       H  0.30124411  0.62915533  0.79307470     0.04800
H1836       H  0.27495853  0.63110126  0.81668660     0.08000
H1837       H  0.31788026  0.68233903  0.80512409     0.08000
H1838       H  0.14154848  0.66461592  0.75440290     0.08000
H1839       H  0.17577255  0.66910021  0.73224968     0.08000
H1840       H  0.19243561  0.71563907  0.74935918     0.04700
C1841       C  0.46496784  0.82160001  0.76835125    -0.21100
C1842       C  0.43408658  0.78611774  0.75586620    -0.07600
C1843       C  0.40919353  0.74288830  0.76493470     0.13200
C1844       C  0.41668345  0.73708721  0.78594222    -0.21100
C1845       C  0.44961939  0.77255653  0.79767527    -0.07600
C1846       C  0.97567218  0.81629616  0.78889372     0.13200
C1847       C  0.00931751  0.85606915  0.80127547    -0.24500
H1848       H  0.98534815  0.85693107  0.76261260     0.14500
H1849       H  0.40045595  0.70373177  0.79229671     0.14500
C1850       C  0.37674814  0.70143970  0.75277065    -0.24400
H1851       H  0.00170469  0.88268108  0.80036275     0.04800
H1852       H  0.04207843  0.86835192  0.79443441     0.08000
H1853       H  0.00907297  0.84866479  0.81811011     0.08000
H1854       H  0.37871490  0.70699884  0.73568092     0.08000
H1855       H  0.34323406  0.68979921  0.75843653     0.08000
H1856       H  0.38299083  0.67403857  0.75522694     0.04700
C1857       C  0.41290794  0.87813453  0.77099268    -0.21100
C1858       C  0.37747709  0.83656672  0.76405002    -0.07600
C1859       C  0.35178630  0.80601399  0.77958553     0.13200
C1860       C  0.36479281  0.81464974  0.80099954    -0.21100
C1861       C  0.40173150  0.85541943  0.80762286    -0.07600
C1862       C  0.42359297  0.88881572  0.79220438     0.13200
C1863       C  0.45773773  0.93700881  0.79700448    -0.24500
H1864       H  0.43385924  0.90321250  0.75987611     0.14500
H1865       H  0.34609262  0.78923547  0.81246374     0.14500
C1866       C  0.30983149  0.76475084  0.77385515    -0.24400
H1867       H  0.45043327  0.95929148  0.78805996     0.04800
H1868       H  0.49039315  0.94403442  0.79212739     0.08000
H1869       H  0.45800766  0.94653335  0.81358875     0.08000
H1870       H  0.31260699  0.73551379  0.77729718     0.08000
H1871       H  0.30047397  0.76299955  0.75718880     0.08000
H1872       H  0.28366500  0.76504416  0.78289400     0.04700
C1873       C  0.08786184  0.61068644  0.46018263    -0.21100
C1874       C  0.12657494  0.64298501  0.46964398    -0.07600
C1875       C  0.15259767  0.68485265  0.46032663     0.13200
C1876       C  0.14254054  0.69129912  0.44011488    -0.21100
C1877       C  0.10708485  0.65657720  0.42918891    -0.07600
C1878       C  0.07773016  0.61615328  0.43983118     0.13200
C1879       C  0.03591538  0.57794558  0.43050061    -0.24500
H1880       H  0.06821226  0.57875148  0.46776482     0.14500
H1881       H  0.16326203  0.72301305  0.43258434     0.14500
C1882       C  0.19241927  0.72209696  0.47109309    -0.24400
H1883       H  0.01759784  0.55103618  0.44197713     0.04800
H1884       H  0.04247880  0.56203253  0.41698623     0.08000
H1885       H  0.01371437  0.58927776  0.42595736     0.08000
H1886       H  0.22185015  0.73091440  0.46163563     0.08000
H1887       H  0.19693620  0.71297674  0.48705638     0.08000
H1888       H  0.18880163  0.75160770  0.47269467     0.04700
C1889       C  0.28877405  0.83862449  0.46158572    -0.21100
C1890       C  0.32590445  0.84968023  0.47346977    -0.07600
C1891       C  0.36726412  0.87884310  0.46479219     0.13200
C1892       C  0.37044599  0.89658283  0.44463751    -0.21100
C1893       C  0.33305801  0.88377358  0.43226998    -0.07600
C1894       C  0.29168529  0.85338206  0.44092853     0.13200
C1895       C  0.25004475  0.83210584  0.42831311    -0.24500
H1896       H  0.25708457  0.81475420  0.46779330     0.14500
H1897       H  0.40239655  0.92004492  0.43842797     0.14500
C1898       C  0.40792381  0.88951771  0.47657011    -0.24400
H1899       H  0.23342174  0.79520052  0.42930844     0.04800
H1900       H  0.25557044  0.83981427  0.41143217     0.08000
H1901       H  0.22807467  0.84293449  0.43473374     0.08000
H1902       H  0.40798462  0.85844318  0.47946709     0.08000
H1903       H  0.40901962  0.90539544  0.49198237     0.08000
H1904       H  0.43774276  0.91245039  0.46768181     0.04700
C1905       C  0.28708809  0.69138123  0.46724369    -0.21100
C1906       C  0.29316724  0.70049414  0.48910899    -0.07600
C1907       C  0.28311095  0.66427376  0.50252984     0.13200
C1908       C  0.26743622  0.62198822  0.49316118    -0.21100
C1909       C  0.24245713  0.61330411  0.47502991    -0.07600
C1910       C  0.26217670  0.64683566  0.45994775     0.13200
C1911       C  0.25150990  0.63575342  0.43709797    -0.24500
H1912       H  0.29808631  0.71821182  0.45617596     0.14500
H1913       H  0.25936378  0.59406248  0.50315501     0.14500
C1914       C  0.28121680  0.66693524  0.52612253    -0.24400
H1915       H  0.26839712  0.66621768  0.42743535     0.04800
H1916       H  0.21585031  0.61948904  0.43449563     0.08000
H1917       H  0.26217316  0.61253850  0.43178115     0.08000
H1918       H  0.25628807  0.67533527  0.53052952     0.08000
H1919       H  0.31340214  0.69224442  0.53269133     0.08000
H1920       H  0.27123240  0.63453126  0.53349631     0.04700
C1921       C  0.95180587  0.81738487  0.44613052    -0.21100
C1922       C  0.97477173  0.80288016  0.45780937    -0.07600
C1923       C  0.01029866  0.80256838  0.44848897     0.13200
C1924       C  0.02401354  0.82020312  0.42840922    -0.21100
C1925       C  0.00512240  0.84092165  0.41764153    -0.07600
C1926       C  0.96617543  0.83658146  0.42628067     0.13200
C1927       C  0.43978073  0.85444811  0.41729381    -0.24500
H1928       H  0.42729380  0.82096306  0.45551569     0.14500
H1929       H  0.05099180  0.81892718  0.42148813     0.14500
C1930       C  0.03452305  0.78383881  0.45919302    -0.24400
H1931       H  0.41216483  0.84916203  0.42736888     0.04800
H1932       H  0.42523434  0.83391269  0.40283811     0.08000
H1933       H  0.45826898  0.89030396  0.41354174     0.08000
H1934       H  0.03212208  0.75606643  0.44946195     0.08000
H1935       H  0.02173069  0.77086924  0.47501743     0.08000
H1936       H  0.06942785  0.81037808  0.46083719     0.04700
C1937       C  0.44839209  0.61977520  0.44876466    -0.21100
C1938       C  0.97296670  0.63154469  0.46648570    -0.07600
C1939       C  0.01846336  0.66145393  0.46497004     0.13200
C1940       C  0.03665310  0.67897246  0.44539997    -0.21100
C1941       C  0.01157273  0.66538187  0.42686048    -0.07600
C1942       C  0.96575551  0.64042321  0.42879899     0.13200
C1943       C  0.43560728  0.62978904  0.41147893    -0.24500
H1944       H  0.41319396  0.59915373  0.44970867     0.14500
H1945       H  0.07139168  0.70143975  0.44475022     0.14500
C1946       C  0.04880191  0.67452277  0.48349613    -0.24400
H1947       H  0.41365660  0.64183710  0.41640358     0.04800
H1948       H  0.41544213  0.59357899  0.40752142     0.08000
H1949       H  0.95309303  0.65176485  0.39673655     0.08000
H1950       H  0.04583691  0.64428890  0.49049731     0.08000
H1951       H  0.04117407  0.69312257  0.49531760     0.08000
H1952       H  0.08337312  0.69641379  0.47890434     0.04700
C1953       C  0.83470775  0.59360396  0.48280234    -0.21100
C1954       C  0.83992087  0.57984753  0.50263650    -0.07600
C1955       C  0.33778188  0.60548084  0.52011769     0.13200
C1956       C  0.35904709  0.65191124  0.51789745    -0.21100
C1957       C  0.87290646  0.66937169  0.49718173    -0.07600
C1958       C  0.85755698  0.64007883  0.47926180     0.13200
C1959       C  0.86655569  0.65618170  0.45701655    -0.24500
H1960       H  0.82604786  0.57101383  0.46950443     0.14500
H1961       H  0.36439009  0.67279552  0.53161804     0.14500
C1962       C  0.31770253  0.58362004  0.54054355    -0.24400
H1963       H  0.85500228  0.67955959  0.45442123     0.04800
H1964       H  0.90200223  0.67311288  0.45375197     0.08000
H1965       H  0.84963924  0.62803349  0.44552590     0.08000
H1966       H  0.33428047  0.56693884  0.54682073     0.08000
H1967       H  0.28269750  0.55852725  0.53800216     0.08000
H1968       H  0.32000956  0.60838009  0.55242571     0.04700
C1969       C  0.31494364  0.99260046  0.45759361    -0.21100
C1970       C  0.34626799  0.98901639  0.46905593    -0.07600
C1971       C  0.38597788  0.99994143  0.45940656     0.13200
C1972       C  0.38984642  0.00601878  0.43761018    -0.21100
C1973       C  0.35456806  0.00088849  0.42564241    -0.07600
C1974       C  0.31952560  0.00010783  0.43603966     0.13200
C1975       C  0.28533206  0.00357724  0.42408133    -0.24500
H1976       H  0.29200914  0.49182930  0.46583580     0.14500
H1977       H  0.41774336  0.00824446  0.42971157     0.14500
C1978       C  0.42212499  0.00049513  0.47149312    -0.24400
H1979       H  0.26806869  0.50897644  0.43517995     0.04800
H1980       H  0.26885579  0.97610581  0.41228049     0.08000
H1981       H  0.30918425  0.53940899  0.41578186     0.08000
H1982       H  0.40968107  0.96815580  0.47920375     0.08000
H1983       H  0.43461830  0.02691520  0.48382788     0.08000
H1984       H  0.44978051  0.00674908  0.46120367     0.04700
C1985       C  0.05875696  0.93390304  0.47178295    -0.21100
C1986       C  0.08884531  0.92313023  0.47915980    -0.07600
C1987       C  0.12539394  0.93331316  0.46632658     0.13200
C1988       C  0.12712047  0.94695303  0.44564359    -0.21100
C1989       C  0.09389256  0.95155117  0.43718645    -0.07600
C1990       C  0.06149449  0.94912957  0.45107875     0.13200
C1991       C  0.03370493  0.46857131  0.44458953    -0.24500
H1992       H  0.03563163  0.43336175  0.48179622     0.14500
H1993       H  0.15309402  0.95073455  0.43542203     0.14500
C1994       C  0.16308085  0.92992133  0.47410418    -0.24400
H1995       H  0.01160720  0.46546419  0.45758901     0.04800
H1996       H  0.01356190  0.44799712  0.43119340     0.08000
H1997       H  0.05254656  0.50419150  0.44011447     0.08000
H1998       H  0.15319544  0.89461442  0.47632734     0.08000
H1999       H  0.17524376  0.94928634  0.48897562     0.08000
H2000       H  0.19067012  0.94409353  0.46284572     0.04700
C2001       C  0.17063948  0.40075330  0.52189666    -0.21100
C2002       C  0.13798997  0.85556503  0.51740020    -0.07600
C2003       C  0.15227307  0.82835960  0.50834167     0.13200
C2004       C  0.19751161  0.84589724  0.50608753    -0.21100
C2005       C  0.22756343  0.89056055  0.51183397    -0.07600
C2006       C  0.21447152  0.41914650  0.51840656     0.13200
C2007       C  0.24305187  0.46906528  0.52239136    -0.24500
H2008       H  0.16049387  0.42316042  0.52766421     0.14500
H2009       H  0.20928022  0.82544366  0.49936251     0.14500
C2010       C  0.12010760  0.78166175  0.50104050    -0.24400
H2011       H  0.23091259  0.48691100  0.51313097     0.04800
H2012       H  0.27751958  0.48362850  0.51788473     0.08000
H2013       H  0.24131244  0.47657163  0.53923177     0.08000
H2014       H  0.09904409  0.78223395  0.48855980     0.08000
H2015       H  0.09951282  0.76207879  0.51443433     0.08000
H2016       H  0.13691612  0.76486534  0.49464950     0.04700
C2017       C  0.17191022  0.55608989  0.56377538    -0.21100
C2018       C  0.16647145  0.58388152  0.57801467    -0.07600
C2019       C  0.15910239  0.61665530  0.56984164     0.13200
C2020       C  0.15165403  0.61639954  0.54809663    -0.21100
C2021       C  0.15333629  0.58530235  0.53432335    -0.07600
C2022       C  0.16329227  0.55446475  0.54254992     0.13200
C2023       C  0.16550807  0.51936423  0.52926388    -0.24500
H2024       H  0.18163439  0.53355234  0.56901695     0.14500
H2025       H  0.14735268  0.64237454  0.54176910     0.14500
C2026       C  0.16440067  0.65527055  0.58304244    -0.24400
H2027       H  0.16384941  0.49260333  0.53895836     0.04800
H2028       H  0.19693308  0.53433751  0.52079190     0.08000
H2029       H  0.13795283  0.50353929  0.51796655     0.08000
H2030       H  0.17301084  0.65397330  0.59956117     0.08000
H2031       H  0.13418113  0.65629910  0.58268012     0.08000
H2032       H  0.19120747  0.68696189  0.57651072     0.04700
C2033       C  0.09731623  0.97384275  0.58255236    -0.21100
C2034       C  0.13091045  0.47095008  0.59332333    -0.07600
C2035       C  0.14218527  0.43989856  0.58653766     0.13200
C2036       C  0.12168093  0.41319307  0.56862639    -0.21100
C2037       C  0.09020848  0.91807456  0.55696522    -0.07600
C2038       C  0.07920278  0.94959538  0.56373343     0.13200
C2039       C  0.04970831  0.95914660  0.55113479    -0.24500
H2040       H  0.08794361  0.99723285  0.58784394     0.14500
H2041       H  0.13136250  0.38978502  0.56377643     0.14500
C2042       C  0.17574850  0.43417622  0.59770945    -0.24400
H2043       H  0.04355904  0.98368644  0.55926997     0.04800
H2044       H  0.01796726  0.92814200  0.54851925     0.08000
H2045       H  0.06480376  0.97341826  0.53580176     0.08000
H2046       H  0.19053187  0.45729806  0.61137589     0.08000
H2047       H  0.20223915  0.44038339  0.58661883     0.08000
H2048       H  0.16030613  0.39942836  0.60338505     0.04700
C2049       C  0.47579532  0.65990157  0.57953428    -0.21100
C2050       C  0.49213918  0.63446515  0.58734811    -0.07600
C2051       C  0.51101173  0.61782500  0.57283736     0.13200
C2052       C  0.50191808  0.61668194  0.55130822    -0.21100
C2053       C  0.47404886  0.63072697  0.54451675    -0.07600
C2054       C  0.46448332  0.65640071  0.55839709     0.13200
C2055       C  0.43739640  0.67522086  0.55180146    -0.24500
H2056       H  0.46438183  0.67569379  0.59047568     0.14500
H2057       H  0.51245070  0.60035521  0.54021799     0.14500
C2058       C  0.53801610  0.59862190  0.57958416    -0.24400
H2059       H  0.43923852  0.70030755  0.56330691     0.04800
H2060       H  0.40304641  0.64774124  0.55117299     0.08000
H2061       H  0.44832558  0.69104269  0.53628337     0.08000
H2062       H  0.51824070  0.56720355  0.58823873     0.08000
H2063       H  0.06337039  0.62422924  0.58874198     0.08000
H2064       H  0.55257954  0.59086424  0.56594102     0.04700
C2065       C  0.41530049  0.01999079  0.57222144    -0.21100
C2066       C  0.38709774  0.52269838  0.58700279    -0.07600
C2067       C  0.34395372  0.50720898  0.58112763     0.13200
C2068       C  0.32986064  0.48811268  0.56110789    -0.21100
C2069       C  0.35867272  0.48668227  0.54635856    -0.07600
C2070       C  0.40222015  0.00403528  0.55161088     0.13200
C2071       C  0.43468494  0.00451180  0.53629551    -0.24500
H2072       H  0.44790592  0.03047632  0.57712197     0.14500
H2073       H  0.29606955  0.47443615  0.55696010     0.14500
C2074       C  0.31273396  0.50994651  0.59612160    -0.24400
H2075       H  0.46691796  0.01695565  0.54379115     0.04800
H2076       H  0.43926392  0.02658453  0.52306562     0.08000
H2077       H  0.42310377  0.97056181  0.52990673     0.08000
H2078       H  0.32523062  0.54536140  0.60062222     0.08000
H2079       H  0.30925541  0.49080679  0.61043902     0.08000
H2080       H  0.27998267  0.49612791  0.58898475     0.04700
C2081       C  0.36954676  0.85047423  0.57911238    -0.21100
C2082       C  0.36109118  0.81240864  0.59030339    -0.07600
C2083       C  0.32979288  0.77013302  0.58191329     0.13200
C2084       C  0.31472724  0.76680295  0.56130920    -0.21100
C2085       C  0.32897836  0.80457814  0.54863900    -0.07600
C2086       C  0.35315266  0.84694233  0.55862741     0.13200
C2087       C  0.36154102  0.88839119  0.54807551    -0.24500
H2088       H  0.39163506  0.88343321  0.58567378     0.14500
H2089       H  0.29204360  0.73386725  0.55504979     0.14500
C2090       C  0.31113096  0.72786651  0.59428312    -0.24400
H2091       H  0.38074801  0.89400404  0.53358725     0.04800
H2092       H  0.37963367  0.91808523  0.55855723     0.08000
H2093       H  0.32976637  0.88458009  0.54420107     0.08000
H2094       H  0.32236179  0.73451441  0.61079852     0.08000
H2095       H  0.32027684  0.70495988  0.58683046     0.08000
H2096       H  0.27500679  0.71093809  0.59454411     0.04700
C2097       C  0.46150080  0.84620550  0.56530780    -0.21100
C2098       C  0.47305278  0.82474103  0.57999010    -0.07600
C2099       C  0.98568014  0.79625858  0.57232748     0.13200
C2100       C  0.98607745  0.78781648  0.55066610    -0.21100
C2101       C  0.47363036  0.80737526  0.53666655    -0.07600
C2102       C  0.46095728  0.83726273  0.54369967     0.13200
C2103       C  0.44456542  0.85765359  0.52850541    -0.24500
H2104       H  0.45044333  0.86802507  0.57084931     0.14500
H2105       H  0.99624232  0.76513393  0.54523163     0.14500
C2106       C  0.00111371  0.77538216  0.58772273    -0.24400
H2107       H  0.43724323  0.88126236  0.53659839     0.04800
H2108       H  0.41451502  0.83108729  0.52057847     0.08000
H2109       H  0.46989837  0.87659499  0.51652475     0.08000
H2110       H  0.02812227  0.80201980  0.59733730     0.08000
H2111       H  0.01342677  0.75574467  0.57962922     0.08000
H2112       H  0.97391008  0.75282925  0.59819874     0.04700
C2113       C  0.41204223  0.74769831  0.17131808    -0.21100
C2114       C  0.43618438  0.75677164  0.18949811    -0.07600
C2115       C  0.41134360  0.73076895  0.20647447     0.13200
C2116       C  0.38149463  0.68522165  0.20228817    -0.21100
C2117       C  0.37300303  0.66912294  0.18122254    -0.07600
C2118       C  0.38659576  0.70243245  0.16533419     0.13200
C2119       C  0.38089074  0.69378992  0.14231494    -0.24500
H2120       H  0.42458290  0.77303298  0.15953067     0.14500
H2121       H  0.36727709  0.66267371  0.21529864     0.14500
C2122       C  0.42094993  0.74945085  0.22849923    -0.24400
H2123       H  0.41195837  0.70027986  0.13522843     0.04800
H2124       H  0.37178500  0.71617122  0.13490787     0.08000
H2125       H  0.35443162  0.66006487  0.13914120     0.08000
H2126       H  0.45562966  0.76295746  0.23260113     0.08000
H2127       H  0.40034876  0.72351704  0.24003856     0.08000
H2128       H  0.41395401  0.77676371  0.22982392     0.04700
C2129       C  0.09069330  0.72428841  0.24205923    -0.21100
C2130       C  0.05998623  0.70429212  0.25833703    -0.07600
C2131       C  0.01787545  0.69716437  0.25573441     0.13200
C2132       C  0.00634253  0.70518930  0.23616338    -0.21100
C2133       C  0.03664440  0.72247329  0.21961853    -0.07600
C2134       C  0.07957464  0.73316928  0.22271944     0.13200
C2135       C  0.11404796  0.75502049  0.20599614    -0.24500
H2136       H  0.12376832  0.73264777  0.24398526     0.14500
H2137       H  0.47100141  0.69350244  0.23325666     0.14500
C2138       C  0.98548144  0.68400619  0.27338239    -0.24400
H2139       H  0.14682397  0.76435070  0.21182300     0.04800
H2140       H  0.11608302  0.78605941  0.20076807     0.08000
H2141       H  0.10604054  0.73179368  0.19238239     0.08000
H2142       H  0.99939741  0.68388147  0.28881920     0.08000
H2143       H  0.95658546  0.65040153  0.27003249     0.08000
H2144       H  0.47141005  0.70043078  0.27397753     0.04700
C2145       C  0.35491951  0.00831105  0.21452905    -0.21100
C2146       C  0.32875995  0.02633935  0.21128749    -0.07600
C2147       C  0.30144374  0.02433143  0.22801218     0.13200
C2148       C  0.30018758  0.00333309  0.24705522    -0.21100
C2149       C  0.32764503  0.98654500  0.25057431    -0.07600
C2150       C  0.35582508  0.98973386  0.23383416     0.13200
C2151       C  0.38819058  0.97480851  0.23531871    -0.24500
H2152       H  0.37649189  0.01075226  0.20203760     0.14500
H2153       H  0.27906908  0.00188106  0.25963906     0.14500
C2154       C  0.27167850  0.54271229  0.22691594    -0.24400
H2155       H  0.38197319  0.95040799  0.22252274     0.04800
H2156       H  0.42164229  0.00430200  0.23386554     0.08000
H2157       H  0.38707203  0.95827091  0.24986925     0.08000
H2158       H  0.25128030  0.52862848  0.21268025     0.08000
H2159       H  0.29266898  0.57947826  0.22555450     0.08000
H2160       H  0.25005170  0.53573696  0.24068476     0.04700
C2161       C  0.33541719  0.84870210  0.22089270    -0.21100
C2162       C  0.31902726  0.86607253  0.20646880    -0.07600
C2163       C  0.28959552  0.87873230  0.21326741     0.13200
C2164       C  0.28259309  0.88045372  0.23482594    -0.21100
C2165       C  0.30492520  0.87031718  0.24980727    -0.07600
C2166       C  0.32641349  0.84821168  0.24242353     0.13200
C2167       C  0.33904623  0.82300295  0.25668167    -0.24500
H2168       H  0.35603732  0.83641977  0.21541750     0.14500
H2169       H  0.26283768  0.89402213  0.23954766     0.14500
C2170       C  0.26830031  0.89381847  0.19787057    -0.24400
H2171       H  0.32479620  0.78819519  0.25069207     0.04800
H2172       H  0.32696105  0.82131979  0.27289814     0.08000
H2173       H  0.37479116  0.83899585  0.25722814     0.08000
H2174       H  0.24824895  0.86621465  0.18653144     0.08000
H2175       H  0.29358655  0.92317193  0.18917450     0.08000
H2176       H  0.24670426  0.90352720  0.20582283     0.04700
C2177       C  0.06193345  0.85709915  0.23421987    -0.21100
C2178       C  0.03451616  0.86350413  0.24794517    -0.07600
C2179       C  0.00028945  0.86678361  0.23914153     0.13200
C2180       C  0.99776160  0.86935431  0.21727776    -0.21100
C2181       C  0.02837617  0.86850499  0.20379347    -0.07600
C2182       C  0.05999503  0.86073647  0.21226439     0.13200
C2183       C  0.09361872  0.85974826  0.19837971    -0.24500
H2184       H  0.08719111  0.85277537  0.24067650     0.14500
H2185       H  0.97258517  0.87387292  0.21064720     0.14500
C2186       C  0.96562289  0.86670914  0.25261948    -0.24400
H2187       H  0.11733566  0.85558447  0.20762269     0.04800
H2188       H  0.11204916  0.89155284  0.18976472     0.08000
H2189       H  0.07739805  0.83159381  0.18689457     0.08000
H2190       H  0.97917816  0.89532818  0.26379399     0.08000
H2191       H  0.44751393  0.83362494  0.26266359     0.08000
H2192       H  0.44021551  0.86695267  0.24382131     0.04700
C2193       C  0.50926268  0.98411647  0.17484158    -0.21100
C2194       C  0.51899698  0.96813977  0.15661053    -0.07600
C2195       C  0.49906395  0.96933707  0.13783197     0.13200
C2196       C  0.45778093  0.96436364  0.13923514    -0.21100
C2197       C  0.43959441  0.96220305  0.15915877    -0.07600
C2198       C  0.46897705  0.98122229  0.17625902     0.13200
C2199       C  0.45778649  0.99561605  0.19629078    -0.24500
H2200       H  0.52845861  0.99059124  0.18896758     0.14500
H2201       H  0.43801846  0.95594367  0.12517804     0.14500
C2202       C  0.01438941  0.97076158  0.11693655    -0.24400
H2203       H  0.48345351  0.03063554  0.20020415     0.04800
H2204       H  0.45552449  0.97356258  0.20913941     0.08000
H2205       H  0.42684724  0.99479687  0.19458129     0.08000
H2206       H  0.99221485  0.93884303  0.10847092     0.08000
H2207       H  0.04745001  0.97548619  0.11783712     0.08000
H2208       H  0.01699867  0.99886913  0.10792947     0.04700
C2209       C  0.12462623  0.00128688  0.24699162    -0.21100
C2210       C  0.13487517  0.97140696  0.25579967    -0.07600
C2211       C  0.15734726  0.95553222  0.24320832     0.13200
C2212       C  0.16545282  0.96743098  0.22207634    -0.21100
C2213       C  0.15501355  0.99706366  0.21350526    -0.07600
C2214       C  0.13471364  0.01459941  0.22612789     0.13200
C2215       C  0.12247862  0.04671910  0.21797330    -0.24500
H2216       H  0.10764403  0.01368871  0.25637096     0.14500
H2217       H  0.18278316  0.95581065  0.21243704     0.14500
C2218       C  0.17455876  0.92738053  0.25143657    -0.24400
H2219       H  0.08694754  0.03255363  0.22012409     0.04800
H2220       H  0.12962028  0.05347654  0.20104944     0.08000
H2221       H  0.14060694  0.07884120  0.22689109     0.08000
H2222       H  0.14849534  0.89654476  0.25873867     0.08000
H2223       H  0.20095135  0.94717941  0.26296929     0.08000
H2224       H  0.18905091  0.91690190  0.23879545     0.04700
C2225       C  0.20965102  0.73941267  0.23178631    -0.21100
C2226       C  0.18521194  0.71233832  0.21457824    -0.07600
C2227       C  0.14647744  0.67098396  0.21833070     0.13200
C2228       C  0.13293592  0.65860107  0.23909615    -0.21100
C2229       C  0.15693219  0.68656278  0.25614732    -0.07600
C2230       C  0.19615900  0.72689424  0.25243461     0.13200
C2231       C  0.22435843  0.75730773  0.27003450    -0.24500
H2232       H  0.24009961  0.77043536  0.22909535     0.14500
H2233       H  0.10206295  0.62817408  0.24197461     0.14500
C2234       C  0.11946182  0.63947821  0.20073954    -0.24400
H2235       H  0.22839973  0.79079024  0.26854937     0.04800
H2236       H  0.25649100  0.76023077  0.26918485     0.08000
H2237       H  0.21105507  0.74446385  0.28580725     0.08000
H2238       H  0.13945799  0.62964040  0.19136251     0.11600
H2239       H  0.10711768  0.65586452  0.19053199     0.08000
H2240       H  0.09073403  0.60847728  0.20670490     0.04700
C2241       C  0.27595686  0.64850049  0.19488415    -0.21100
C2242       C  0.26284113  0.62503527  0.17557709    -0.07600
C2243       C  0.27873316  0.64966317  0.15683845     0.13200
C2244       C  0.29916053  0.69637911  0.15808093    -0.21100
C2245       C  0.29785288  0.71709632  0.17693102    -0.07600
C2246       C  0.29580087  0.69502019  0.19562896     0.13200
C2247       C  0.30656824  0.71852543  0.21667650    -0.24500
H2248       H  0.26828597  0.63062344  0.20948646     0.14500
H2249       H  0.30597389  0.71464325  0.14363444     0.14500
C2250       C  0.27215362  0.62776815  0.13543973    -0.24400
H2251       H  0.32912511  0.71180765  0.22534376     0.04800
H2252       H  0.27638396  0.70607536  0.22609888     0.08000
H2253       H  0.32243276  0.75516122  0.21487995     0.08000
H2254       H  0.23717881  0.60842109  0.13130623     0.08000
H2255       H  0.28472089  0.60473725  0.13522355     0.08000
H2256       H  0.28950971  0.65284234  0.12307013     0.04700
C2257       C  0.33052246  0.54256505  0.09497634    -0.21100
C2258       C  0.31263049  0.99786155  0.09224545    -0.07600
C2259       C  0.30915300  0.97300757  0.11010133     0.13200
C2260       C  0.32203066  0.99462046  0.13003266    -0.21100
C2261       C  0.34058168  0.04117201  0.13249526    -0.07600
C2262       C  0.34674427  0.56418066  0.11442227     0.13200
C2263       C  0.37430345  0.61396016  0.11345265    -0.24500
H2264       H  0.33574273  0.56254299  0.08121282     0.14500
H2265       H  0.31592171  0.97456395  0.14380502     0.14500
C2266       C  0.29261298  0.92415588  0.10834559    -0.24400
H2267       H  0.39603367  0.62401830  0.09968688     0.04800
H2268       H  0.39602954  0.62869600  0.12718334     0.08000
H2269       H  0.35291668  0.62739688  0.11055278     0.08000
H2270       H  0.31412467  0.91857252  0.09776754     0.08000
H2271       H  0.25904436  0.90556951  0.10212217     0.08000
H2272       H  0.29283632  0.91095631  0.12393080     0.04700
C2273       C  0.20125618  0.94972838  0.11224737    -0.21100
C2274       C  0.18947495  0.96685972  0.09552501    -0.07600
C2275       C  0.16931441  0.99147777  0.09977094     0.13200
C2276       C  0.16489468  0.00179335  0.12072677    -0.21100
C2277       C  0.17955746  0.98714314  0.13740418    -0.07600
C2278       C  0.19661337  0.95957947  0.13317170     0.13200
C2279       C  0.21194434  0.94257111  0.15063095    -0.24500
H2280       H  0.21544053  0.92979541  0.10886045     0.14500
H2281       H  0.15186293  0.02307169  0.12411072     0.14500
C2282       C  0.15332713  0.00724458  0.08212378    -0.24400
H2283       H  0.22464475  0.92157241  0.14452322     0.04800
H2284       H  0.18432200  0.92196026  0.16131356     0.08000
H2285       H  0.23845957  0.97109927  0.15965571     0.08000
H2286       H  0.13031989  0.97817549  0.07214064     0.08000
H2287       H  0.17626139  0.53046474  0.07229094     0.08000
H2288       H  0.13564949  0.02350109  0.08803247     0.04700
C2289       C  0.04500411  0.82888940  0.09499454    -0.21100
C2290       C  0.00352894  0.79708795  0.08722750    -0.07600
C2291       C  0.96633470  0.78936541  0.09863673     0.13200
C2292       C  0.97194742  0.81034950  0.11838254    -0.21100
C2293       C  0.01365621  0.84011610  0.12652092    -0.07600
C2294       C  0.05017954  0.85099095  0.11416043     0.13200
C2295       C  0.09460417  0.88799886  0.12058271    -0.24500
H2296       H  0.07392523  0.83603016  0.08632647     0.14500
H2297       H  0.43838217  0.79745105  0.12737857     0.14500
C2298       C  0.41687359  0.75514465  0.09003066    -0.24400
H2299       H  0.11942673  0.88950586  0.10970287     0.04800
H2300       H  0.10287420  0.88353272  0.13669579     0.08000
H2301       H  0.09502841  0.91978081  0.12015032     0.08000
H2302       H  0.39749748  0.72450504  0.09929665     0.08000
H2303       H  0.41714796  0.74539700  0.07342276     0.08000
H2304       H  0.40050384  0.77469384  0.09042804     0.04700
C2305       C  0.49049362  0.67288871  0.13317897    -0.21100
C2306       C  0.02385578  0.72047843  0.14256952    -0.07600
C2307       C  0.05685607  0.75386657  0.13022765     0.13200
C2308       C  0.05620770  0.74706113  0.10842449    -0.21100
C2309       C  0.02355304  0.70704919  0.09892151    -0.07600
C2310       C  0.49255008  0.66507904  0.11152407     0.13200
C2311       C  0.46874654  0.61828598  0.10247542    -0.24500
H2312       H  0.46714112  0.64610016  0.14301833     0.14500
H2313       H  0.07949496  0.77404814  0.09868878     0.14500
C2314       C  0.09174036  0.79696829  0.14021002    -0.24400
H2315       H  0.44704935  0.59359884  0.11424570     0.04800
H2316       H  0.49303378  0.60946307  0.09735482     0.08000
H2317       H  0.44929995  0.61567591  0.08851354     0.08000
H2318       H  0.10979928  0.78995873  0.15207237     0.08000
H2319       H  0.07648512  0.81368688  0.14831424     0.08000
H2320       H  0.11549085  0.81980102  0.12845978     0.04700
C2321       C  0.31824351  0.79554078  0.09963416    -0.21100
C2322       C  0.28215319  0.79424101  0.09065444    -0.07600
C2323       C  0.25916967  0.81044665  0.10242171     0.13200
C2324       C  0.27246634  0.82606987  0.12301973    -0.21100
C2325       C  0.31078263  0.83099555  0.13105447    -0.07600
C2326       C  0.33324821  0.81437880  0.11956906     0.13200
C2327       C  0.37262772  0.81526041  0.12812599    -0.24500
H2328       H  0.33487801  0.78177096  0.09099747     0.14500
H2329       H  0.25495639  0.83799217  0.13227248     0.14500
C2330       C  0.22233459  0.81403588  0.09338266    -0.24400
H2331       H  0.36644420  0.78079413  0.12775893     0.04800
H2332       H  0.38027142  0.82764606  0.14460081     0.08000
H2333       H  0.40136207  0.83687554  0.11822928     0.08000
H2334       H  0.19763373  0.78257963  0.08576259     0.08000
H2335       H  0.23527843  0.84057113  0.08150248     0.08000
H2336       H  0.20567094  0.82286649  0.10558296     0.04700
C2337       C  0.15761601  0.70264377  0.10330414    -0.21100
C2338       C  0.17759854  0.68122408  0.09362259    -0.07600
C2339       C  0.18955617  0.65696774  0.10624028     0.13200
C2340       C  0.19230522  0.66436930  0.12798092    -0.21100
C2341       C  0.18299725  0.69533108  0.13717712    -0.07600
C2342       C  0.16205408  0.71174536  0.12505733     0.13200
C2343       C  0.14803642  0.74171344  0.13467717    -0.24500
H2344       H  0.14319744  0.71684587  0.09377352     0.14500
H2345       H  0.20526063  0.64898108  0.13767526     0.14500
C2346       C  0.20132725  0.62500844  0.09672270    -0.24400
H2347       H  0.13416561  0.75325886  0.12263969     0.04800
H2348       H  0.17639378  0.77165631  0.14198148     0.08000
H2349       H  0.12294195  0.72331646  0.14683865     0.08000
H2350       H  0.19297566  0.61873406  0.07977126     0.08000
H2351       H  0.18294574  0.59264106  0.10477215     0.08000
H2352       H  0.23670397  0.63856199  0.09838401     0.04700
C2353       C  0.71402808  0.24214277  0.04131173     0.85700
C2354       C  0.67987811  0.20852124  0.05639091    -0.54500
C2355       C  0.69707620  0.19578145  0.07192784     0.08700
C2356       C  0.74776346  0.21763792  0.07036382     0.19600
C2357       C  0.74749878  0.28061642  0.05547968    -0.55200
C2358       C  0.76343489  0.26758984  0.07133084     0.08800
C2359       C  0.73721377  0.21864926  0.03310669    -0.54800
C2360       C  0.75801665  0.20851187  0.04776706     0.09300
H2361       H  0.64600289  0.19954247  0.05621885     0.13800
H2362       H  0.76220472  0.20740704  0.08274070    -0.00400
H2363       H  0.75508355  0.31472475  0.05401001     0.14200
H2364       H  0.73087070  0.20296147  0.01780788     0.13900
C2365       C  0.53928555  0.24814699  0.04264485     0.85700
C2366       C  0.53356057  0.28485602  0.05337871    -0.54500
C2367       C  0.50129069  0.26960405  0.06828527     0.08700
C2368       C  0.47616822  0.21862640  0.07007502     0.19600
C2369       C  0.54502691  0.22394745  0.06091287    -0.55200
C2370       C  0.51271912  0.20917798  0.07561723     0.08800
C2371       C  0.49371244  0.21451820  0.03367557    -0.54800
C2372       C  0.95710460  0.19588983  0.04810694     0.09300
H2373       H  0.55578123  0.32022739  0.05078241     0.13800
H2374       H  0.94707441  0.20023881  0.08239618    -0.00400
H2375       H  0.57534439  0.22486348  0.06365756     0.14200
H2376       H  0.48792885  0.20327639  0.01752654     0.13900
C2377       C  0.72954095  0.43056807  0.04692177     0.85700
C2378       C  0.76801198  0.44177759  0.06208258    -0.54500
C2379       C  0.78069296  0.47987648  0.07440283     0.08700
C2380       C  0.74870279  0.00045921  0.07032444     0.19600
C2381       C  0.69396504  0.42750356  0.06177406    -0.55200
C2382       C  0.70711930  0.46483663  0.07395849     0.08800
C2383       C  0.74686929  0.47377247  0.03486397    -0.54800
C2384       C  0.75360463  0.00852963  0.04670735     0.09300
H2385       H  0.78275287  0.42158426  0.06317392     0.13800
H2386       H  0.75863108  0.03141742  0.07967377    -0.00400
H2387       H  0.66336685  0.39645453  0.06441288     0.14200
H2388       H  0.75744637  0.47598734  0.01889144     0.13900
O2389       O  0.72961120  0.38981130  0.98408417    -0.82600
C2390       C  0.57731306  0.26686642  0.02699946     0.96800
O2391       O  0.60349170  0.30865876  0.02594199    -0.71700
O2392       O  0.67773773  0.38564046  0.02033735    -0.75300
Al2393     Al  0.63549997  0.34016514  0.00167415     1.49000
C2394       C  0.71038239  0.39183947  0.03077888     0.92100
O2395       O  0.72479744  0.29394679  0.01476482    -0.81500
O2396       O  0.67261069  0.24404540  0.97885593    -0.75000
Al2397     Al  0.72124594  0.33854258  0.99941947     1.90100
O2398       O  0.65684873  0.24199735  0.02110681    -0.74100
O2399       O  0.59783572  0.24910198  0.97210053    -0.74000
O2400       O  0.58266404  0.24081734  0.01497561    -0.79600
O2401       O  0.58632713  0.30107304  0.98432034    -0.77800
O2402       O  0.66241981  0.30935830  0.99909617    -1.14000
O2403       O  0.66369449  0.37615844  0.97756783    -0.73100
C2404       C  0.70453261  0.40007700  0.97520380     0.97600
C2405       C  0.69723227  0.25970169  0.02461784     0.94000
Al2406     Al  0.63051926  0.24947299  0.99671644     1.55600
O2407       O  0.72733815  0.36882875  0.02636694    -0.77800
C2408       C  0.57426574  0.26654714  0.97302506     0.98100
C2409       C  0.70940901  0.27098686  0.97063902     0.93000
O2410       O  0.72547565  0.31260353  0.97310656    -0.83100
C2411       C  0.70307714  0.22263319  0.19244051     0.79500
N2412       N  0.67991110  0.21064909  0.17410409    -0.78800
C2413       C  0.70073752  0.21335001  0.15575020     0.81900
N2414       N  0.74307743  0.22523911  0.15614647    -0.78800
C2415       C  0.76515474  0.23310741  0.17436478     0.82000
N2416       N  0.74523003  0.23380643  0.19224217    -0.80500
C2417       C  0.67680290  0.51400344  0.19259806     0.79500
N2418       N  0.70911194  0.55763572  0.19261184    -0.78800
C2419       C  0.73172215  0.57672697  0.17491010     0.81900
N2420       N  0.72056004  0.55192603  0.15707928    -0.78800
C2421       C  0.68802227  0.50872984  0.15661294     0.82000
N2422       N  0.66639772  0.48892472  0.17456407    -0.80500
C2423       C  0.52612933  0.37881484  0.18193680     0.79500
N2424       N  0.51875301  0.35128295  0.16494948    -0.78800
C2425       C  0.51445142  0.36434978  0.14548686     0.81900
N2426       N  0.51801080  0.40436137  0.14321155    -0.78800
C2427       C  0.52598199  0.43217147  0.15980805     0.82000
N2428       N  0.52949276  0.41878543  0.17913541    -0.80500
C2429       C  0.83566084  0.37678470  0.18577592     0.79500
N2430       N  0.81302487  0.35029668  0.16908339    -0.78800
C2431       C  0.83090190  0.36107884  0.14966125     0.81900
N2432       N  0.87054410  0.39844479  0.14700093    -0.78800
C2433       C  0.89335780  0.42538847  0.16348020     0.82000
N2434       N  0.87585945  0.41366492  0.18296302    -0.80500
C2435       C  0.86712100  0.44913668  0.29682952     0.85700
C2436       C  0.85214952  0.40805747  0.28230331    -0.54500
C2437       C  0.81294234  0.39298811  0.27197811     0.08700
C2438       C  0.79179767  0.42025026  0.27875879     0.19600
C2439       C  0.86615694  0.48395317  0.28284063    -0.55200
C2440       C  0.82769817  0.46859941  0.27218749     0.08800
C2441       C  0.82979456  0.43596828  0.31193682    -0.54800
C2442       C  0.78982006  0.41876849  0.30320037     0.09300
H2443       H  0.87538095  0.39847591  0.27791906     0.13800
H2444       H  0.75896942  0.40844345  0.27226934    -0.00400
H2445       H  0.89549650  0.51536793  0.27906491     0.14200
H2446       H  0.83533981  0.44211920  0.32848599     0.13900
C2447       C  0.57500919  0.13266594  0.29827821     0.85700
C2448       C  0.59672858  0.17105310  0.31445846    -0.54500
C2449       C  0.61768137  0.21285589  0.30638379     0.08700
C2450       C  0.61898190  0.21227498  0.28262582     0.19600
C2451       C  0.54806476  0.14418905  0.28383574    -0.55200
C2452       C  0.57138316  0.18611234  0.27552526     0.08800
C2453       C  0.61292584  0.13935723  0.28444826    -0.54800
C2454       C  0.63563019  0.18106672  0.27583007     0.09300
H2455       H  0.59988085  0.16484942  0.33054789     0.13800
H2456       H  0.63796908  0.24671085  0.27652717    -0.00400
H2457       H  0.51507152  0.11948993  0.27894679     0.14200
H2458       H  0.61748063  0.11215820  0.27958851     0.13900
C2459       C  0.59372534  0.38944878  0.30086364     0.85700
C2460       C  0.56336083  0.35707583  0.28326060    -0.54500
C2461       C  0.54670461  0.37588615  0.27025113     0.08700
C2462       C  0.56213314  0.42479860  0.27645402     0.19600
C2463       C  0.62842350  0.43054112  0.28901910    -0.55200
C2464       C  0.61210754  0.44713719  0.27504966     0.08800
C2465       C  0.56622871  0.40513841  0.31220166    -0.54800
C2466       C  0.55050706  0.42496911  0.29989391     0.09300
H2467       H  0.55947089  0.32464912  0.28003094     0.13800
H2468       H  0.54955568  0.44098238  0.26632515    -0.00400
H2469       H  0.66286071  0.44234564  0.29017107     0.14200
H2470       H  0.55961706  0.40087706  0.32879523     0.13900
O2471       O  0.74159251  0.41538798  0.36164423    -0.82600
C2472       C  0.63256385  0.25430893  0.31917375     0.96800
O2473       O  0.67266215  0.28352282  0.32067928    -0.71700
O2474       O  0.74535735  0.36318898  0.32837458    -0.75300
Al2475     Al  0.69783649  0.31834284  0.34575508     1.49000
C2476       C  0.74991460  0.39472935  0.31691512     0.92100
O2477       O  0.64721903  0.40290041  0.32702756    -0.81500
O2478       O  0.59725814  0.35112227  0.36087288    -0.75000
Al2479     Al  0.69137259  0.40293991  0.34438225     1.90100
O2480       O  0.60121584  0.33251809  0.31870625    -0.74100
O2481       O  0.60521312  0.28126843  0.37072755    -0.74000
O2482       O  0.60455382  0.25964247  0.32891858    -0.79600
O2483       O  0.65691113  0.26780115  0.36266191    -0.77800
O2484       O  0.66543329  0.34347562  0.34497596    -1.14000
O2485       O  0.72719489  0.34929866  0.37117976    -0.73100
C2486       C  0.75103340  0.39131327  0.37239409     0.97600
C2487       C  0.61530664  0.37354480  0.31609935     0.94000
Al2488     Al  0.60716453  0.30917163  0.34483310     1.55600
O2489       O  0.72335960  0.40810383  0.31879097    -0.77800
C2490       C  0.62171646  0.25717652  0.37221782     0.98100
C2491       C  0.62162881  0.38729287  0.37100916     0.93000
O2492       O  0.66269379  0.40634162  0.36950932    -0.83100
C2493       C  0.52068156  0.23199642  0.19958056     0.79500
N2494       N  0.52953049  0.22234441  0.18009449    -0.78800
C2495       C  0.00989786  0.22595965  0.16292609     0.81900
N2496       N  0.98523838  0.24481102  0.16562333    -0.78800
C2497       C  0.97547035  0.25330639  0.18527685     0.82000
N2498       N  0.99188703  0.24376214  0.20187093    -0.80500
C2499       C  0.83755370  0.55347381  0.19179483     0.79500
N2500       N  0.83638955  0.53615855  0.17214132    -0.78800
C2501       C  0.84012031  0.05772799  0.15559303     0.81900
N2502       N  0.85177637  0.10128969  0.15829009    -0.78800
C2503       C  0.85388676  0.11943313  0.17763833     0.82000
N2504       N  0.84377367  0.09292001  0.19462655    -0.80500
C2505       C  0.95074568  0.36330698  0.63239700     0.85700
C2506       C  0.97933821  0.36272237  0.61456830    -0.54500
C2507       C  0.95900669  0.32457162  0.60237122     0.08700
C2508       C  0.91176360  0.29017722  0.60951168     0.19600
C2509       C  0.90903864  0.35497274  0.62111917    -0.55200
C2510       C  0.88914446  0.31744886  0.60849463     0.08800
C2511       C  0.93660727  0.32056697  0.64458995    -0.54800
C2512       C  0.91436671  0.28173019  0.63315811     0.09300
H2513       H  0.50832974  0.39346344  0.60944204     0.13800
H2514       H  0.89627952  0.25921738  0.59968814    -0.00400
H2515       H  0.89896384  0.37934596  0.62141401     0.14200
H2516       H  0.94265043  0.32104383  0.66123476     0.13900
C2517       C  0.95697919  0.05958123  0.63578742     0.85700
C2518       C  0.91960919  0.02546169  0.62153679    -0.54500
C2519       C  0.90262503  0.04347304  0.60894113     0.08700
C2520       C  0.92269793  0.09369917  0.61261681     0.19600
C2521       C  0.98998622  0.09509735  0.62103506    -0.55200
C2522       C  0.97218564  0.11247559  0.60820094     0.08800
C2523       C  0.93903664  0.08426773  0.64815819    -0.54800
C2524       C  0.91897499  0.10039202  0.63639741     0.09300
H2525       H  0.91268860  0.48991280  0.61883360     0.13800
H2526       H  0.90676504  0.10722509  0.60291525    -0.00400
H2527       H  0.52389449  0.10115213  0.62045316     0.14200
H2528       H  0.94424179  0.09101516  0.66469595     0.13900
C2529       C  0.62996742  0.04338328  0.63502211     0.85700
C2530       C  0.63275393  0.06817260  0.61455629    -0.54500
C2531       C  0.66449901  0.07173308  0.60066289     0.08700
C2532       C  0.68894339  0.04923510  0.60888641     0.19600
C2533       C  0.62289327  0.99838453  0.62709697    -0.55200
C2534       C  0.65073995  0.00034887  0.61223662     0.08800
C2535       C  0.67650994  0.06960327  0.64359421    -0.54800
C2536       C  0.70769366  0.07186944  0.63055620     0.09300
H2537       H  0.60909946  0.07734658  0.61056103     0.13800
H2538       H  0.71520721  0.05171865  0.59863957    -0.00400
H2539       H  0.59266164  0.46992383  0.62818267     0.14200
H2540       H  0.68527109  0.08968635  0.65779622     0.13900
O2541       O  0.58500045  0.05242910  0.69655672    -0.82600
C2542       C  0.97084103  0.40468533  0.64663991     0.96800
O2543       O  0.01059524  0.42488301  0.65194852    -0.71700
O2544       O  0.58514147  0.49953629  0.66269066    -0.75300
Al2545     Al  0.53483338  0.45717560  0.67827405     1.49000
C2546       C  0.59485041  0.03236112  0.65164313     0.92100
O2547       O  0.50443543  0.05948657  0.66123605    -0.81500
O2548       O  0.94393225  0.50205152  0.69137034    -0.75000
Al2549     Al  0.54008101  0.04807954  0.67861323     1.90100
O2550       O  0.95701980  0.49551378  0.64929359    -0.74100
O2551       O  0.93783997  0.42387124  0.69641149    -0.74000
O2552       O  0.94572708  0.41582522  0.65484437    -0.79600
O2553       O  0.48915902  0.40785428  0.69360058    -0.77800
O2554       O  0.50877551  0.48915033  0.67703787    -1.14000
O2555       O  0.56402543  0.48396278  0.70460491    -0.73100
C2556       C  0.59076542  0.02533130  0.70675547     0.97600
C2557       C  0.97457600  0.03792245  0.64939021     0.94000
Al2558     Al  0.95149350  0.46194295  0.67328047     1.55600
O2559       O  0.57431537  0.05269920  0.65377821    -0.77800
C2560       C  0.95192831  0.39821709  0.70003173     0.98100
C2561       C  0.96711451  0.03361475  0.70339303     0.93000
O2562       O  0.50817963  0.04981010  0.70282490    -0.83100
C2563       C  0.57810295  0.39501246  0.53536426     0.79500
N2564       N  0.57943055  0.41664002  0.51739786    -0.78800
C2565       C  0.58279062  0.40026027  0.49825046     0.81900
N2566       N  0.58883021  0.36511545  0.49750685    -0.78800
C2567       C  0.59417857  0.34809456  0.51530612     0.82000
N2568       N  0.58182455  0.35839605  0.53362382    -0.80500
C2569       C  0.83989529  0.96316199  0.52725234     0.79500
N2570       N  0.85743875  0.98289671  0.50859361    -0.78800
C2571       C  0.83253948  0.46601319  0.48998657     0.81900
N2572       N  0.79161351  0.42979903  0.49103056    -0.78800
C2573       C  0.77479738  0.40964128  0.50941324     0.82000
N2574       N  0.79936700  0.92645015  0.52761839    -0.80500
C2575       C  0.95118216  0.11284734  0.52461011     0.79500
N2576       N  0.90713072  0.09299510  0.52390142    -0.78800
C2577       C  0.88549323  0.08143304  0.50527788     0.81900
N2578       N  0.41211544  0.09098538  0.48771389    -0.78800
C2579       C  0.45611451  0.11261978  0.48764664     0.82000
N2580       N  0.97404796  0.12220720  0.50644461    -0.80500
C2581       C  0.45771103  0.28126833  0.47860617     0.79500
N2582       N  0.47396750  0.30507731  0.49693799    -0.78800
C2583       C  0.45765406  0.28440322  0.51557834     0.81900
N2584       N  0.42536291  0.24095020  0.51560255    -0.78800
C2585       C  0.40878890  0.21730078  0.49750923     0.82000
N2586       N  0.42536803  0.23774559  0.47906425    -0.80500
C2587       C  0.82203278  0.29779475  0.52516049     0.79500
N2588       N  0.82646755  0.32918352  0.51113982    -0.78800
C2589       C  0.82075139  0.31853431  0.49010559     0.81900
N2590       N  0.81135834  0.27758860  0.48337494    -0.78800
C2591       C  0.80753782  0.24679967  0.49701165     0.82000
N2592       N  0.81293853  0.25741922  0.51764503    -0.80500
C2593       C  0.65703387  0.08685212  0.51055514     0.79500
N2594       N  0.63746671  0.10564048  0.50043228    -0.78800
C2595       C  0.64895565  0.11831460  0.48022129     0.81900
N2596       N  0.68079019  0.11466113  0.47071055    -0.78800
C2597       C  0.70110298  0.09716835  0.48078261     0.82000
N2598       N  0.68752471  0.08206128  0.50037848    -0.80500
C2599       C  0.55238985  0.43939893  0.37999782     0.85700
C2600       C  0.51685602  0.39231242  0.38744621    -0.54500
C2601       C  0.53117347  0.37280498  0.40116164     0.08700
C2602       C  0.58114624  0.40073435  0.40391818     0.19600
C2603       C  0.57350722  0.46577564  0.40049626    -0.55200
C2604       C  0.58791429  0.44500022  0.41336230     0.08800
C2605       C  0.58727804  0.43256882  0.36979515    -0.54800
C2606       C  0.60120124  0.41048531  0.38166844     0.09300
H2607       H  0.48316627  0.37759969  0.38287050     0.13800
H2608       H  0.59514196  0.38565657  0.41385681    -0.00400
H2609       H  0.57364372  0.49584626  0.40503522     0.14200
H2610       H  0.59896642  0.44289958  0.35401623     0.13900
C2611       C  0.55274282  0.13032405  0.37714878     0.85700
C2612       C  0.58764818  0.13148036  0.39113104    -0.54500
C2613       C  0.60311316  0.16372321  0.40628175     0.08700
C2614       C  0.58796518  0.19731768  0.40379006     0.19600
C2615       C  0.51989128  0.13167326  0.39230058    -0.55200
C2616       C  0.53802482  0.16688660  0.40664147     0.08800
C2617       C  0.57431046  0.17594471  0.36701322    -0.54800
C2618       C  0.59521202  0.21124174  0.38059816     0.09300
H2619       H  0.59449936  0.10468103  0.39112051     0.13800
H2620       H  0.60439682  0.22687903  0.41449529    -0.00400
H2621       H  0.98445165  0.10310241  0.39418244     0.14200
H2622       H  0.56701966  0.18092419  0.35132617     0.13900
C2623       C  0.87413671  0.44589795  0.38008426     0.85700
C2624       C  0.87703140  0.48624908  0.39181019    -0.54500
C2625       C  0.84395000  0.47547888  0.40568940     0.08700
C2626       C  0.80896232  0.42525177  0.40526378     0.19600
C2627       C  0.87006368  0.41455197  0.39783416    -0.55200
C2628       C  0.83577602  0.40366999  0.41136433     0.08800
C2629       C  0.82948174  0.42097068  0.36960231    -0.54800
C2630       C  0.79533749  0.41203347  0.38206343     0.09300
H2631       H  0.90717209  0.01639431  0.39218416     0.13800
H2632       H  0.78109709  0.41687003  0.41577664    -0.00400
H2633       H  0.89347433  0.40424063  0.40016820     0.14200
H2634       H  0.82418280  0.40536155  0.35429606     0.13900
O2635       O  0.56098494  0.06142713  0.31111856    -0.82600
C2636       C  0.91048997  0.46082978  0.36401049     0.96800
O2637       O  0.91745375  0.49214693  0.35188628    -0.71700
O2638       O  0.49416442  0.06537159  0.35965746    -0.75300
Al2639     Al  0.96708530  0.03208930  0.33536222     1.49000
C2640       C  0.53470246  0.09032342  0.36231418     0.92100
O2641       O  0.55280513  0.50160073  0.36301245    -0.81500
O2642       O  0.49134102  0.43538169  0.31056810    -0.75000
Al2643     Al  0.55336312  0.03028367  0.33679756     1.90100
O2644       O  0.50263683  0.43357937  0.35320937    -0.74100
O2645       O  0.91482915  0.43704191  0.31911757    -0.74000
O2646       O  0.93237327  0.44205328  0.36197700    -0.79600
O2647       O  0.93824846  0.50572488  0.30974258    -0.77800
O2648       O  0.49454879  0.50065275  0.33581733    -1.14000
O2649       O  0.51320788  0.08097606  0.31824928    -0.73100
C2650       C  0.54760475  0.08819558  0.30903028     0.97600
C2651       C  0.53450581  0.45967190  0.36499584     0.94000
Al2652     Al  0.96262130  0.44289979  0.33662014     1.55600
O2653       O  0.56080901  0.08153044  0.35291724    -0.77800
C2654       C  0.90988078  0.46461574  0.30852824     0.98100
C2655       C  0.53217502  0.45071136  0.31004149     0.93000
O2656       O  0.55797441  0.48513953  0.32094037    -0.83100
C2657       C  0.92322753  0.35538389  0.71193447     0.85700
C2658       C  0.89340960  0.36044466  0.72736454    -0.54500
C2659       C  0.87228829  0.32606719  0.74084455     0.08700
C2660       C  0.87383227  0.28405855  0.73321755     0.19600
C2661       C  0.94831094  0.33846467  0.72502549    -0.55200
C2662       C  0.92161430  0.30037614  0.73636127     0.08800
C2663       C  0.89157046  0.31518909  0.69834920    -0.54800
C2664       C  0.86699159  0.27646665  0.70902695     0.09300
H2665       H  0.89660212  0.39266968  0.73041324     0.13800
H2666       H  0.85061830  0.25394624  0.74184621    -0.00400
H2667       H  0.98354534  0.35740664  0.72669560     0.14200
H2668       H  0.89164648  0.31606654  0.68141956     0.13900
C2669       C  0.63551550  0.04325645  0.71678480     0.85700
C2670       C  0.66928408  0.05606203  0.69928652    -0.54500
C2671       C  0.71125997  0.07521949  0.70578510     0.08700
C2672       C  0.71586566  0.07803179  0.72938988     0.19600
C2673       C  0.64216625  0.01203891  0.73083493    -0.55200
C2674       C  0.68446330  0.03107453  0.73767748     0.08800
C2675       C  0.65272316  0.08618385  0.73048036    -0.54800
C2676       C  0.69531685  0.10452915  0.73737511     0.09300
H2677       H  0.65965824  0.04827367  0.68317685     0.13800
H2678       H  0.75050177  0.09209766  0.73372488    -0.00400
H2679       H  0.61566047  0.98038695  0.73647456     0.14200
H2680       H  0.63090278  0.09661242  0.73637190     0.13900
C2681       C  0.94643807  0.05529140  0.71638424     0.85700
C2682       C  0.98087468  0.10035925  0.72619254    -0.54500
C2683       C  0.96436847  0.11971279  0.73891336     0.08700
C2684       C  0.91431926  0.09590213  0.73767325     0.19600
C2685       C  0.91746038  0.02810498  0.73485705    -0.55200
C2686       C  0.90044263  0.04896878  0.74699652     0.08800
C2687       C  0.91624465  0.06486775  0.70373332    -0.54800
C2688       C  0.90140859  0.08894236  0.71393898     0.09300
H2689       H  0.01501474  0.11039640  0.72715675     0.13800
H2690       H  0.90233003  0.11550868  0.74558497    -0.00400
H2691       H  0.91578172  0.99741651  0.73892458     0.14200
H2692       H  0.90502012  0.05095018  0.68821560     0.13900
O2693       O  0.85122976  0.09483940  0.64507608    -0.82600
C2694       C  0.85655431  0.23405904  0.69744545     0.96800
O2695       O  0.88517728  0.22322872  0.69601397    -0.71700
O2696       O  0.88853660  0.14800957  0.70275498    -0.75300
Al2697     Al  0.89319569  0.18298966  0.67778776     1.49000
C2698       C  0.87833720  0.10752387  0.70146181     0.92100
O2699       O  0.77497063  0.08048797  0.69096526    -0.81500
O2700       O  0.77838012  0.13662489  0.63813137    -0.75000
Al2701     Al  0.81349091  0.08910196  0.66816682     1.90100
O2702       O  0.75612141  0.12857067  0.68055037    -0.74100
O2703       O  0.84767834  0.21873573  0.64569586    -0.74000
O2704       O  0.82208338  0.21329859  0.68671431    -0.79600
O2705       O  0.90926443  0.22463368  0.65520259    -0.77800
O2706       O  0.83715601  0.14869549  0.66982091    -1.14000
O2707       O  0.91157261  0.14936125  0.66020087    -0.73100
C2708       C  0.89269003  0.11710875  0.64689931     0.97600
C2709       C  0.74944094  0.09561541  0.69163201     0.94000
Al2710     Al  0.80423430  0.17190010  0.66339280     1.55600
O2711       O  0.85221844  0.08337596  0.68713855    -0.77800
C2712       C  0.88888216  0.23809756  0.64446592     0.98100
C2713       C  0.75413106  0.09474367  0.63823968     0.93000
O2714       O  0.76528105  0.07317520  0.64939272    -0.83100
C2715       C  0.91041328  0.02252711  0.83541051     0.79500
N2716       N  0.88375286  0.01409574  0.85222098    -0.78800
C2717       C  0.89627873  0.00874155  0.87156683     0.81900
N2718       N  0.93395401  0.51292406  0.87207891    -0.78800
C2719       C  0.95965674  0.51782597  0.85560813     0.82000
N2720       N  0.94939017  0.02518059  0.83819606    -0.80500
C2721       C  0.92126327  0.36564899  0.82963026     0.79500
N2722       N  0.96389916  0.39614959  0.83366034    -0.78800
C2723       C  0.98049087  0.40527502  0.85342491     0.81900
N2724       N  0.95357260  0.38212549  0.86949061    -0.78800
C2725       C  0.91083263  0.35117747  0.86622474     0.82000
N2726       N  0.89468657  0.34299091  0.84612423    -0.80500
C2727       C  0.74646734  0.48901900  0.80985386     0.79500
N2728       N  0.73190354  0.44584292  0.80494986    -0.78800
C2729       C  0.71442359  0.41417789  0.81940144     0.81900
N2730       N  0.71709444  0.42668698  0.83973265    -0.78800
C2731       C  0.73120016  0.46935103  0.84560920     0.82000
N2732       N  0.74555062  0.99742703  0.82915514    -0.80500
C2733       C  0.47639796  0.26232128  0.81247870     0.79500
N2734       N  0.51495519  0.26816933  0.80602988    -0.78800
C2735       C  0.54383977  0.26909343  0.81966661     0.81900
N2736       N  0.53352605  0.26401197  0.84030959    -0.78800
C2737       C  0.49526066  0.25848348  0.84724651     0.82000
N2738       N  0.96348879  0.25637846  0.83339492    -0.80500
C2739       C  0.75265919  0.20428580  0.81619151     0.79500
N2740       N  0.74915549  0.24102400  0.81788025    -0.78800
C2741       C  0.74329444  0.25521619  0.83676917     0.81900
N2742       N  0.75374906  0.24095822  0.85397475    -0.78800
C2743       C  0.75789898  0.20473696  0.85291571     0.82000
N2744       N  0.75494532  0.18469977  0.83401654    -0.80500
C2745       C  0.00515743  0.15396413  0.82637093     0.79500
N2746       N  0.04768064  0.18593978  0.82761338    -0.78800
C2747       C  0.56586691  0.19971339  0.84702578     0.81900
N2748       N  0.54350341  0.18117127  0.86455973    -0.78800
C2749       C  0.00391896  0.14938628  0.86338692     0.82000
N2750       N  0.98257083  0.13428921  0.84442246    -0.80500
C2751       C  0.77542429  0.21236249  0.96892357     0.85700
C2752       C  0.74339392  0.17856721  0.95280361    -0.54500
C2753       C  0.73287139  0.19697680  0.93706234     0.08700
C2754       C  0.75071826  0.24758904  0.94058168     0.19600
C2755       C  0.81311332  0.24765043  0.95547537    -0.55200
C2756       C  0.80135747  0.26786338  0.94057524     0.08800
C2757       C  0.75353455  0.23697863  0.97763140    -0.54800
C2758       C  0.73780038  0.25310139  0.96322176     0.09300
H2759       H  0.73808484  0.14512778  0.95116485     0.13800
H2760       H  0.73760657  0.26087361  0.92908154    -0.00400
H2761       H  0.84495693  0.25146029  0.95640050     0.14200
H2762       H  0.75348542  0.24522666  0.99385228     0.13900
C2763       C  0.76742786  0.02075114  0.96621681     0.85700
C2764       C  0.80268015  0.01285980  0.95687295    -0.54500
C2765       C  0.78744794  0.97588253  0.94393088     0.08700
C2766       C  0.74014605  0.45527507  0.94217743     0.19600
C2767       C  0.74244060  0.02174470  0.94706779    -0.55200
C2768       C  0.72823816  0.98536745  0.93375578     0.08800
C2769       C  0.73484623  0.97759705  0.97697842    -0.54800
C2770       C  0.72417840  0.44445113  0.96502762     0.09300
H2771       H  0.83675829  0.03890341  0.95768149     0.13800
H2772       H  0.72602520  0.42414563  0.93256454    -0.00400
H2773       H  0.73963724  0.05032766  0.94369885     0.14200
H2774       H  0.72309805  0.97691424  0.99260550     0.13900
C2775       C  0.94593308  0.20482881  0.96894211     0.85700
C2776       C  0.94749140  0.23317722  0.95040623    -0.54500
C2777       C  0.98066564  0.24258207  0.93642689     0.08700
C2778       C  0.51134574  0.22561903  0.94243018     0.19600
C2779       C  0.94245668  0.16317856  0.95808178    -0.55200
C2780       C  0.97417800  0.17237523  0.94380540     0.08800
C2781       C  0.99191226  0.23127875  0.97835335    -0.54800
C2782       C  0.52807932  0.24288652  0.96493360     0.09300
H2783       H  0.92240409  0.24090684  0.94749825     0.13800
H2784       H  0.53773206  0.23267529  0.93108296    -0.00400
H2785       H  0.91456522  0.12958893  0.95991456     0.14200
H2786       H  0.99817833  0.24535932  0.99407089     0.13900
O2787       O  0.90247353  0.20696179  0.03305199    -0.82600
C2788       C  0.78577911  0.06052772  0.98132273     0.96800
O2789       O  0.82606560  0.08316741  0.98535782    -0.71700
O2790       O  0.90033473  0.15496840  0.99496257    -0.75300
Al2791     Al  0.85332694  0.11289581  0.01118497     1.49000
C2792       C  0.91035946  0.19028623  0.98554989     0.92100
O2793       O  0.81981375  0.21485486  0.99782177    -0.81500
O2794       O  0.75916269  0.15159310  0.02890737    -0.75000
Al2795     Al  0.85645547  0.20372005  0.01546296     1.90100
O2796       O  0.76911582  0.14812157  0.98682929    -0.74100
O2797       O  0.75842029  0.07542475  0.03415694    -0.74000
O2798       O  0.76000583  0.06815628  0.99133218    -0.79600
O2799       O  0.81150067  0.06341716  0.02697271    -0.77800
O2800       O  0.82574805  0.14350142  0.01268918    -1.14000
O2801       O  0.88632698  0.13790962  0.03648353    -0.73100
C2802       C  0.91186440  0.17914681  0.03993063     0.97600
C2803       C  0.78886288  0.19040781  0.98541389     0.94000
Al2804     Al  0.76732601  0.11378826  0.01062655     1.55600
O2805       O  0.89183651  0.21177278  0.99042132    -0.77800
C2806       C  0.77625883  0.05247695  0.03620525     0.98100
C2807       C  0.78169326  0.18577129  0.04020369     0.93000
O2808       O  0.82325913  0.20445612  0.04035692    -0.83100
C2809       C  0.94416318  0.12199557  0.88984597    -0.21100
C2810       C  0.98512284  0.12979095  0.88409002    -0.07600
C2811       C  0.01356349  0.13255717  0.90027728     0.13200
C2812       C  0.00619402  0.14046429  0.92094582    -0.21100
C2813       C  0.96920889  0.14170688  0.92618264    -0.07600
C2814       C  0.93531805  0.12655097  0.91105494     0.13200
C2815       C  0.89035860  0.11562663  0.91694603    -0.24500
H2816       H  0.92052688  0.11577602  0.87776824     0.14500
H2817       H  0.53214699  0.15048915  0.93237003     0.14500
C2818       C  0.55107372  0.12765606  0.89577621    -0.24400
H2819       H  0.86940851  0.10609762  0.90282103     0.04800
H2820       H  0.89059341  0.14404039  0.92487470     0.08000
H2821       H  0.87577099  0.08696736  0.92769995     0.08000
H2822       H  0.58010094  0.16202999  0.89592192     0.08000
H2823       H  0.05303009  0.11666204  0.88064052     0.08000
H2824       H  0.55532046  0.10785101  0.90788403     0.04700
C2825       C  0.70585062  0.16337078  0.88025910    -0.21100
C2826       C  0.74822222  0.18029253  0.87245832    -0.07600
C2827       C  0.78210473  0.19007717  0.88639136     0.13200
C2828       C  0.77424953  0.18821789  0.90795591    -0.21100
C2829       C  0.73413768  0.18091955  0.91558204    -0.07600
C2830       C  0.69883052  0.16537113  0.90178603     0.13200
C2831       C  0.65467300  0.15348016  0.90961133    -0.24500
H2832       H  0.67958571  0.15513245  0.86939469     0.14500
H2833       H  0.80101795  0.19773176  0.91870908     0.14500
C2834       C  0.82706380  0.20604978  0.87838127    -0.24400
H2835       H  0.63086992  0.14011523  0.89654495     0.04800
H2836       H  0.65595465  0.18348395  0.91654286     0.08000
H2837       H  0.64348588  0.12728941  0.92165505     0.08000
H2838       H  0.83958830  0.23755485  0.86968715     0.08000
H2839       H  0.82519502  0.17993800  0.86756904     0.08000
H2840       H  0.85015863  0.21233700  0.89135339     0.04700
C2841       C  0.64328444  0.26180613  0.85020294    -0.21100
C2842       C  0.61195714  0.21623630  0.84728367    -0.07600
C2843       C  0.62465058  0.18555307  0.84192982     0.13200
C2844       C  0.66717498  0.20153452  0.83673665    -0.21100
C2845       C  0.69917306  0.24692001  0.83885914    -0.07600
C2846       C  0.68768110  0.27747623  0.84651575     0.13200
C2847       C  0.72093909  0.32579284  0.85067273    -0.24500
H2848       H  0.63310570  0.28498967  0.85479476     0.14500
H2849       H  0.67569755  0.17712129  0.83209573     0.14500
C2850       C  0.59470956  0.13538393  0.84149371    -0.24400
H2851       H  0.71122979  0.34702436  0.84278687     0.04800
H2852       H  0.75354757  0.33502660  0.84462089     0.08000
H2853       H  0.72284820  0.33305221  0.86778606     0.08000
H2854       H  0.09522711  0.12087236  0.82611213     0.08000
H2855       H  0.06074096  0.12452192  0.84558378     0.08000
H2856       H  0.60676522  0.12031595  0.85270531     0.04700
C2857       C  0.52479745  0.29134550  0.88245934    -0.21100
C2858       C  0.48912505  0.26025764  0.87008837    -0.07600
C2859       C  0.94651671  0.22736368  0.87993550     0.13200
C2860       C  0.94379653  0.22916484  0.90190448    -0.21100
C2861       C  0.98113443  0.25573641  0.91431362    -0.07600
C2862       C  0.52268843  0.29062435  0.90444390     0.13200
C2863       C  0.56274589  0.32365549  0.91672495    -0.24500
H2864       H  0.55506549  0.31533940  0.87493520     0.14500
H2865       H  0.91311780  0.20706229  0.90941258     0.14500
C2866       C  0.90852567  0.19153270  0.86750972    -0.24400
H2867       H  0.57276449  0.35814697  0.91218696     0.04800
H2868       H  0.58977139  0.31782308  0.91320867     0.08000
H2869       H  0.55715752  0.32131528  0.93390852     0.08000
H2870       H  0.91894464  0.17165320  0.85814384     0.08000
H2871       H  0.89638687  0.20697299  0.85662018     0.08000
H2872       H  0.88158883  0.16814166  0.87787204     0.04700
C2873       C  0.75147073  0.01523725  0.87584551    -0.21100
C2874       C  0.72342648  0.47800075  0.86785956    -0.07600
C2875       C  0.69108193  0.44356364  0.88076731     0.13200
C2876       C  0.69032808  0.45155144  0.90233328    -0.21100
C2877       C  0.72111677  0.98650755  0.91061936    -0.07600
C2878       C  0.74978220  0.02276418  0.89756808     0.13200
C2879       C  0.77936227  0.06935346  0.90609361    -0.24500
H2880       H  0.77520951  0.04216234  0.86618259     0.14500
H2881       H  0.66805029  0.42435049  0.91232033     0.14500
C2882       C  0.65714353  0.39765413  0.87257381    -0.24400
H2883       H  0.80027074  0.09259876  0.89368370     0.04800
H2884       H  0.80077025  0.06918103  0.91844032     0.08000
H2885       H  0.75957017  0.08281288  0.91250749     0.08000
H2886       H  0.67234746  0.37826172  0.86772024     0.08000
H2887       H  0.63890642  0.40066930  0.85942776     0.08000
H2888       H  0.63279632  0.37765760  0.88473614     0.04700
C2889       C  0.66477975  0.33457881  0.80756538    -0.21100
C2890       C  0.67189556  0.37666937  0.81352806    -0.07600
C2891       C  0.63609157  0.38252763  0.81628455     0.13200
C2892       C  0.59598694  0.34553232  0.81934424    -0.21100
C2893       C  0.58840282  0.30303968  0.81522798    -0.07600
C2894       C  0.62186527  0.29743991  0.80686670     0.13200
C2895       C  0.61333255  0.25463630  0.79665944    -0.24500
H2896       H  0.69210995  0.33078677  0.80357077     0.14500
H2897       H  0.56991636  0.34993795  0.82496876     0.14500
C2898       C  0.63885256  0.42700468  0.81587037    -0.24400
H2899       H  0.62596501  0.26139536  0.78035768     0.04800
H2900       H  0.57801324  0.22952028  0.79563258     0.08000
H2901       H  0.63032372  0.24086613  0.80528085     0.08000
H2902       H  0.65221829  0.44238416  0.80053893     0.08000
H2903       H  0.65849621  0.44934905  0.82891395     0.08000
H2904       H  0.60627062  0.42329394  0.81719151     0.04700
C2905       C  0.90117078  0.32822403  0.90389215    -0.21100
C2906       C  0.88230427  0.33102236  0.88513806    -0.07600
C2907       C  0.83887459  0.32110026  0.88611719     0.13200
C2908       C  0.81332881  0.30044332  0.90401812    -0.21100
C2909       C  0.83142593  0.29550662  0.92265680    -0.07600
C2910       C  0.87755343  0.31480598  0.92285145     0.13200
C2911       C  0.90421230  0.32743266  0.94271239    -0.24500
H2912       H  0.93568915  0.33989544  0.90422539     0.14500
H2913       H  0.77922461  0.28937737  0.90318195     0.14500
C2914       C  0.82070028  0.33676123  0.86948283    -0.24400
H2915       H  0.93154983  0.36270707  0.94187183     0.04800
H2916       H  0.91818189  0.30592366  0.94453097     0.08000
H2917       H  0.88530543  0.32607678  0.95679537     0.08000
H2918       H  0.81900956  0.32069819  0.85415313     0.08000
H2919       H  0.84179934  0.37353701  0.86797189     0.08000
H2920       H  0.78760267  0.32913706  0.87374125     0.04700
C2921       C  0.79660347  0.95611389  0.90690518    -0.21100
C2922       C  0.81549697  0.97413229  0.92672465    -0.07600
C2923       C  0.86146038  0.99621176  0.92843539     0.13200
C2924       C  0.88664479  0.00867428  0.91014336    -0.21100
C2925       C  0.86734368  0.99549439  0.89012189    -0.07600
C2926       C  0.82195523  0.96562713  0.88873766     0.13200
C2927       C  0.80003681  0.44543880  0.86785906    -0.24500
H2928       H  0.76315135  0.44287495  0.90440445     0.14500
H2929       H  0.92182326  0.02839419  0.91166205     0.14500
C2930       C  0.88501088  0.00533836  0.94909882    -0.24400
H2931       H  0.81520720  0.42652813  0.86209788     0.04800
H2932       H  0.76495707  0.42093956  0.87055833     0.08000
H2933       H  0.80269906  0.46868074  0.85561963     0.08000
H2934       H  0.86228949  0.98984081  0.96243488     0.08000
H2935       H  0.90598189  0.04194709  0.95192451     0.08000
H2936       H  0.90601892  0.99067443  0.94861631     0.04700
C2937       C  0.01994650  0.50887006  0.84129573    -0.21100
C2938       C  0.99734087  0.51161446  0.85883113    -0.07600
C2939       C  0.00442618  0.49665874  0.87829822     0.13200
C2940       C  0.01985874  0.46704243  0.87763711    -0.21100
C2941       C  0.02139325  0.44898700  0.85807948    -0.07600
C2942       C  0.03614469  0.48005600  0.84180157     0.13200
C2943       C  0.06460830  0.47946257  0.82465492    -0.24500
H2944       H  0.02190424  0.52543431  0.82694946     0.14500
H2945       H  0.01889150  0.44990772  0.89180297     0.14500
C2946       C  0.99274681  0.50724274  0.89944814    -0.24400
H2947       H  0.07081607  0.50448697  0.81255750     0.04800
H2948       H  0.04918651  0.44610761  0.81705391     0.08000
H2949       H  0.09636545  0.48757724  0.83143770     0.08000
H2950       H  0.96235894  0.47766060  0.90523131     0.08000
H2951       H  0.98873793  0.53641304  0.89903558     0.08000
H2952       H  0.01950316  0.51602625  0.91077586     0.04700
C2953       C  0.88442045  0.99622767  0.77755376    -0.21100
C2954       C  0.88814683  0.03598412  0.77011484    -0.07600
C2955       C  0.88438949  0.06372689  0.78574873     0.13200
C2956       C  0.89125346  0.05895091  0.80715809    -0.21100
C2957       C  0.89553688  0.02349515  0.81372965    -0.07600
C2958       C  0.88618091  0.98908737  0.79911523     0.13200
C2959       C  0.87520271  0.94390269  0.80656910    -0.24500
H2960       H  0.87929554  0.96986805  0.76671515     0.14500
H2961       H  0.89269071  0.08272576  0.81876691     0.14500
C2962       C  0.86647570  0.09321420  0.78126703    -0.24400
H2963       H  0.86847129  0.92024653  0.79326996     0.04800
H2964       H  0.83907136  0.42654468  0.81381963     0.08000
H2965       H  0.90203417  0.94675399  0.81621311     0.08000
H2966       H  0.84810259  0.08382244  0.76630380     0.08000
H2967       H  0.89268711  0.12884477  0.78155171     0.08000
H2968       H  0.84230575  0.08854154  0.79349429     0.04700
C2969       C  0.99361903  0.10679614  0.77146775    -0.21100
C2970       C  0.98356819  0.13445970  0.76027552    -0.07600
C2971       C  0.98014155  0.16739055  0.77125851     0.13200
C2972       C  0.97867268  0.16664608  0.79333437    -0.21100
C2973       C  0.98843179  0.13907094  0.80474058    -0.07600
C2974       C  0.99785145  0.11004930  0.79327549     0.13200
C2975       C  0.01229745  0.08168929  0.80328766    -0.24500
H2976       H  0.99668981  0.08113668  0.76328854     0.14500
H2977       H  0.97130576  0.18848231  0.80184610     0.14500
C2978       C  0.98180576  0.20485673  0.75936530    -0.24400
H2979       H  0.98873499  0.04595718  0.79944761     0.04800
H2980       H  0.01422329  0.08623017  0.82040358     0.08000
H2981       H  0.04488335  0.09064694  0.79721859     0.08000
H2982       H  0.95444686  0.19219753  0.74812464     0.08000
H2983       H  0.01269952  0.22221657  0.75035114     0.08000
H2984       H  0.98159336  0.22992278  0.76995219     0.04700
C2985       C  0.71265033  0.02503048  0.79379028    -0.21100
C2986       C  0.74339185  0.01196112  0.79112437    -0.07600
C2987       C  0.75330408  0.00434583  0.77037835     0.13200
C2988       C  0.73189742  0.00884579  0.75330445    -0.21100
C2989       C  0.69830285  0.01726982  0.75622105    -0.07600
C2990       C  0.68766658  0.02441972  0.77676865     0.13200
C2991       C  0.64903721  0.02952447  0.78102690    -0.24500
H2992       H  0.70345016  0.02913062  0.80953089     0.14500
H2993       H  0.74085186  0.00471820  0.73749087     0.14500
C2994       C  0.78117904  0.48559578  0.76716269    -0.24400
H2995       H  0.64573308  0.03475037  0.79800824     0.04800
H2996       H  0.61869110  0.99877285  0.77576641     0.08000
H2997       H  0.65205685  0.05837903  0.77274467     0.08000
H2998       H  0.76107625  0.45052460  0.76134198     0.08000
H2999       H  0.80034066  0.98652977  0.77995226     0.08000
H3000       H  0.80501049  0.50530218  0.75478810     0.04700
C3001       C  0.74296563  0.13059832  0.76954002    -0.21100
C3002       C  0.71472661  0.13573079  0.75600346    -0.07600
C3003       C  0.70243398  0.16663268  0.76202731     0.13200
C3004       C  0.71298047  0.18581117  0.78220194    -0.21100
C3005       C  0.74006171  0.17943709  0.79585681    -0.07600
C3006       C  0.75591150  0.15203611  0.78916240     0.13200
C3007       C  0.78716940  0.14582789  0.80227975    -0.24500
H3008       H  0.75419933  0.10828520  0.76559076     0.14500
H3009       H  0.70136264  0.20776386  0.78685941     0.14500
C3010       C  0.68096605  0.18273540  0.74733187    -0.24400
H3011       H  0.79842499  0.12557961  0.79387021     0.04800
H3012       H  0.77099067  0.12812143  0.81689784     0.08000
H3013       H  0.81641912  0.17885364  0.80618110     0.08000
H3014       H  0.64719759  0.17095904  0.75264002     0.08000
H3015       H  0.68058129  0.17192591  0.73084689     0.08000
H3016       H  0.69972953  0.21985195  0.74736847     0.04700
C3017       C  0.96493947  0.32296596  0.76891220    -0.21100
C3018       C  0.93456649  0.28789064  0.75601680    -0.07600
C3019       C  0.91033673  0.24405543  0.76446354     0.13200
C3020       C  0.91753651  0.23718943  0.78531094    -0.21100
C3021       C  0.94980612  0.27219965  0.79747993    -0.07600
C3022       C  0.47517415  0.31571951  0.78875655     0.13200
C3023       C  0.50825352  0.35567149  0.80117158    -0.24500
H3024       H  0.48450979  0.35640697  0.76260246     0.14500
H3025       H  0.90161549  0.20345626  0.79120086     0.14500
C3026       C  0.87877363  0.20310043  0.75178324    -0.24400
H3027       H  0.50003943  0.38180290  0.80002572     0.04800
H3028       H  0.54118864  0.36849227  0.79443661     0.08000
H3029       H  0.50784926  0.34835310  0.81803422     0.08000
H3030       H  0.88083788  0.20981940  0.73485153     0.08000
H3031       H  0.84501236  0.19028502  0.75741401     0.08000
H3032       H  0.88589721  0.17616388  0.75369007     0.04700
C3033       C  0.91506819  0.38054612  0.77054644    -0.21100
C3034       C  0.87847123  0.33935304  0.76404309    -0.07600
C3035       C  0.85270921  0.30983139  0.77986653     0.13200
C3036       C  0.86626500  0.31911954  0.80116580    -0.21100
C3037       C  0.90432780  0.35928668  0.80740069    -0.07600
C3038       C  0.92687170  0.39177303  0.79164609     0.13200
C3039       C  0.96268956  0.43960553  0.79592208    -0.24500
H3040       H  0.93612437  0.40474215  0.75912087     0.14500
H3041       H  0.84715083  0.29445709  0.81285994     0.14500
C3042       C  0.81037257  0.26864098  0.77455793    -0.24400
H3043       H  0.95676026  0.46241931  0.78657473     0.04800
H3044       H  0.99474413  0.44471070  0.79119302     0.08000
H3045       H  0.96347593  0.45038129  0.81232819     0.08000
H3046       H  0.81279995  0.23936990  0.77846406     0.08000
H3047       H  0.80087876  0.26598896  0.75785922     0.08000
H3048       H  0.78451694  0.26980416  0.78348283     0.04700
C3049       C  0.59054311  0.10459685  0.45776258    -0.21100
C3050       C  0.62866434  0.13648192  0.46777496    -0.07600
C3051       C  0.65532700  0.17878523  0.45890621     0.13200
C3052       C  0.64621687  0.18630340  0.43871197    -0.21100
C3053       C  0.61076191  0.15251630  0.42742150    -0.07600
C3054       C  0.58102236  0.11137317  0.43752299     0.13200
C3055       C  0.53920030  0.07382066  0.42784960    -0.24500
H3056       H  0.57059925  0.07225088  0.46494717     0.14500
H3057       H  0.66735975  0.21838227  0.43157181     0.14500
C3058       C  0.69466522  0.21560782  0.47020958    -0.24400
H3059       H  0.52058790  0.04623339  0.43897611     0.04800
H3060       H  0.54569897  0.05866194  0.41399391     0.08000
H3061       H  0.51705777  0.08551265  0.42384533     0.08000
H3062       H  0.72455269  0.22504628  0.46101593     0.08000
H3063       H  0.69850871  0.20574346  0.48612200     0.08000
H3064       H  0.69096908  0.24504907  0.47202042     0.04700
C3065       C  0.78789328  0.33887462  0.46214636    -0.21100
C3066       C  0.82549317  0.34980746  0.47357553    -0.07600
C3067       C  0.86659442  0.37851317  0.46456317     0.13200
C3068       C  0.86908275  0.39586004  0.44444703    -0.21100
C3069       C  0.83128203  0.38303328  0.43244100    -0.07600
C3070       C  0.79010233  0.35332314  0.44149900     0.13200
C3071       C  0.74789205  0.33238650  0.42935806    -0.24500
H3072       H  0.75636876  0.31514200  0.46864249     0.14500
H3073       H  0.90085592  0.41903745  0.43797995     0.14500
C3074       C  0.90770848  0.38905957  0.47589705    -0.24400
H3075       H  0.73060634  0.29549723  0.43066974     0.04800
H3076       H  0.75271123  0.33936163  0.41239017     0.08000
H3077       H  0.72680688  0.34418412  0.43594973     0.08000
H3078       H  0.90727175  0.35784713  0.47911214     0.08000
H3079       H  0.90998537  0.40591855  0.49116576     0.08000
H3080       H  0.93723435  0.41101694  0.46655916     0.04700
C3081       C  0.78986677  0.19190013  0.46757327    -0.21100
C3082       C  0.79536221  0.20148673  0.48939006    -0.07600
C3083       C  0.78575431  0.16583338  0.50308657     0.13200
C3084       C  0.77136827  0.12355287  0.49408319    -0.21100
C3085       C  0.74744369  0.11355945  0.47554779    -0.07600
C3086       C  0.76637693  0.14716651  0.46041154     0.13200
C3087       C  0.75670361  0.13569635  0.43750942    -0.24500
H3088       H  0.80042457  0.21846237  0.45638597     0.14500
H3089       H  0.76349245  0.09608700  0.50436015     0.14500
C3090       C  0.78373245  0.16903463  0.52665650    -0.24400
H3091       H  0.77276499  0.16615075  0.42781343     0.04800
H3092       H  0.72104514  0.11794433  0.43458953     0.08000
H3093       H  0.76902660  0.11372012  0.43247395     0.08000
H3094       H  0.75836237  0.17692684  0.53084283     0.08000
H3095       H  0.81579727  0.19477847  0.53320463     0.08000
H3096       H  0.77418649  0.13696755  0.53426288     0.04700
C3097       C  0.45238620  0.31767437  0.44708226    -0.21100
C3098       C  0.47473095  0.30144940  0.45802254    -0.07600
C3099       C  0.50811405  0.29858269  0.44774150     0.13200
C3100       C  0.52180272  0.31722624  0.42781099    -0.21100
C3101       C  0.50368754  0.33956730  0.41782139    -0.07600
C3102       C  0.46559194  0.33608713  0.42702553     0.13200
C3103       C  0.93907277  0.35681346  0.41687294    -0.24500
H3104       H  0.92332317  0.32041156  0.45451244     0.14500
H3105       H  0.54803917  0.31536660  0.42034009     0.14500
C3106       C  0.52999482  0.27610876  0.45727180    -0.24400
H3107       H  0.91076552  0.35095927  0.42653281     0.04800
H3108       H  0.92540364  0.33707990  0.40213639     0.08000
H3109       H  0.95800722  0.39296499  0.41367911     0.08000
H3110       H  0.52475064  0.24790403  0.44690619     0.08000
H3111       H  0.51740428  0.26268567  0.47306188     0.08000
H3112       H  0.56555028  0.30047758  0.45868158     0.04700
C3113       C  0.94941412  0.12037419  0.44938041    -0.21100
C3114       C  0.47875207  0.13023716  0.46726559    -0.07600
C3115       C  0.52444097  0.15872482  0.46539353     0.13200
C3116       C  0.54225613  0.17582345  0.44571007    -0.21100
C3117       C  0.51651463  0.16307035  0.42739619    -0.07600
C3118       C  0.47077879  0.13902485  0.42967168     0.13200
C3119       C  0.93673362  0.13178873  0.41230515    -0.24500
H3120       H  0.91419760  0.09988143  0.45026108     0.14500
H3121       H  0.57707833  0.19743517  0.44477268     0.14500
C3122       C  0.55528771  0.17071784  0.48364939    -0.24400
H3123       H  0.91503601  0.14403200  0.41739035     0.04800
H3124       H  0.91629942  0.09566977  0.40818725     0.08000
H3125       H  0.45747769  0.15117231  0.39786162     0.08000
H3126       H  0.55134056  0.13991756  0.49049932     0.08000
H3127       H  0.54901239  0.18998066  0.49567288     0.08000
H3128       H  0.58985871  0.19178365  0.47885363     0.04700
C3129       C  0.33970396  0.09268198  0.48461197    -0.21100
C3130       C  0.34605022  0.07993879  0.50444048    -0.07600
C3131       C  0.83875669  0.10516468  0.51993853     0.13200
C3132       C  0.85996835  0.15162728  0.51785255    -0.21100
C3133       C  0.37647618  0.16873719  0.49850750    -0.07600
C3134       C  0.36165876  0.13894145  0.48076915     0.13200
C3135       C  0.37051234  0.15432009  0.45840489    -0.24500
H3136       H  0.33152240  0.06994027  0.47144733     0.14500
H3137       H  0.86477951  0.17228758  0.53159326     0.14500
C3138       C  0.81815301  0.08293352  0.54023391    -0.24400
H3139       H  0.35835657  0.17707360  0.45547481     0.04800
H3140       H  0.40601802  0.17170952  0.45521002     0.08000
H3141       H  0.35408069  0.12576789  0.44708810     0.08000
H3142       H  0.83456519  0.06614641  0.54657869     0.08000
H3143       H  0.78322350  0.05783764  0.53747621     0.08000
H3144       H  0.82014641  0.10747240  0.55216006     0.04700
C3145       C  0.81431272  0.49243674  0.45850589    -0.21100
C3146       C  0.84600132  0.48917846  0.46981044    -0.07600
C3147       C  0.88534366  0.49977871  0.45991391     0.13200
C3148       C  0.88842675  0.50492231  0.43805096    -0.21100
C3149       C  0.85272132  0.49929134  0.42625145    -0.07600
C3150       C  0.81798424  0.49883246  0.43684438     0.13200
C3151       C  0.78346891  0.50209332  0.42508071    -0.24500
H3152       H  0.78918456  0.98916173  0.46723108     0.14500
H3153       H  0.91614003  0.50698560  0.43003946     0.14500
C3154       C  0.92193593  0.50105888  0.47191258    -0.24400
H3155       H  0.76312279  0.00374864  0.43662170     0.04800
H3156       H  0.76645108  0.47425887  0.41350544     0.08000
H3157       H  0.80326696  0.03420998  0.41684711     0.08000
H3158       H  0.90995829  0.46893024  0.47978216     0.08000
H3159       H  0.93447893  0.52789035  0.48408011     0.08000
H3160       H  0.94939699  0.50725997  0.46151504     0.04700
C3161       C  0.56036107  0.43566668  0.47118520    -0.21100
C3162       C  0.59104036  0.42577762  0.47855896    -0.07600
C3163       C  0.62777207  0.43653322  0.46576076     0.13200
C3164       C  0.62900236  0.44959234  0.44500332    -0.21100
C3165       C  0.59500425  0.45290721  0.43656124    -0.07600
C3166       C  0.56249195  0.45014918  0.45042641     0.13200
C3167       C  0.53211057  0.96396472  0.44509717    -0.24500
H3168       H  0.53375322  0.92820905  0.48217086     0.14500
H3169       H  0.65494902  0.45352212  0.43471838     0.14500
C3170       C  0.66585500  0.43390908  0.47361400    -0.24400
H3171       H  0.51011034  0.96087482  0.45812310     0.04800
H3172       H  0.51205122  0.94379958  0.43162993     0.08000
H3173       H  0.55122108  0.99962286  0.44077079     0.08000
H3174       H  0.65639613  0.39877199  0.47600939     0.08000
H3175       H  0.67790556  0.45349991  0.48844445     0.08000
H3176       H  0.69336106  0.44818465  0.46230941     0.04700
C3177       C  0.67004080  0.89868729  0.52284681    -0.21100
C3178       C  0.63870698  0.35632945  0.51665886    -0.07600
C3179       C  0.65273452  0.32858386  0.50798714     0.13200
C3180       C  0.69794821  0.34547002  0.50630359    -0.21100
C3181       C  0.72820339  0.38997431  0.51222488    -0.07600
C3182       C  0.71392195  0.91700022  0.51967865     0.13200
C3183       C  0.74228985  0.96708410  0.52324998    -0.24500
H3184       H  0.65957505  0.92120978  0.52797682     0.14500
H3185       H  0.70957196  0.32469111  0.49983083     0.14500
C3186       C  0.62038796  0.28207166  0.50047052    -0.24400
H3187       H  0.73058763  0.98442121  0.51334041     0.04800
H3188       H  0.77696071  0.98161946  0.51921962     0.08000
H3189       H  0.73978917  0.97533772  0.53989812     0.08000
H3190       H  0.60007461  0.28311469  0.48772977     0.08000
H3191       H  0.59904866  0.26258964  0.51369164     0.08000
H3192       H  0.63700789  0.26485821  0.49433834     0.04700
C3193       C  0.67053484  0.05168423  0.56378126    -0.21100
C3194       C  0.66465893  0.07988046  0.57759255    -0.07600
C3195       C  0.65797249  0.11265194  0.56879054     0.13200
C3196       C  0.65176108  0.11209147  0.54688997    -0.21100
C3197       C  0.65426314  0.08092273  0.53352703    -0.07600
C3198       C  0.66379109  0.05027977  0.54234009     0.13200
C3199       C  0.66762636  0.01572798  0.52944971    -0.24500
H3200       H  0.67964664  0.02899799  0.56949940     0.14500
H3201       H  0.64787065  0.13798872  0.54013346     0.14500
C3202       C  0.66297549  0.15176077  0.58145197    -0.24400
H3203       H  0.66629296  0.98945720  0.53941065     0.04800
H3204       H  0.69943585  0.03147136  0.52127763     0.08000
H3205       H  0.64056419  0.99916443  0.51791433     0.08000
H3206       H  0.66948579  0.15030149  0.59828230     0.08000
H3207       H  0.63349323  0.15393264  0.57988580     0.08000
H3208       H  0.69106296  0.18301352  0.57528325     0.04700
C3209       C  0.59803858  0.47493145  0.58187315    -0.21100
C3210       C  0.62844307  0.96785392  0.59425734    -0.07600
C3211       C  0.63888725  0.93588648  0.58800795     0.13200
C3212       C  0.61906765  0.90947037  0.56993428    -0.21100
C3213       C  0.59107859  0.41922891  0.55623247    -0.07600
C3214       C  0.58023848  0.45092503  0.56295708     0.13200
C3215       C  0.55123094  0.46093606  0.55022641    -0.24500
H3216       H  0.58875238  0.49841792  0.58712211     0.14500
H3217       H  0.62843219  0.88564685  0.56540314     0.14500
C3218       C  0.67075715  0.92879961  0.59998764    -0.24400
H3219       H  0.54522091  0.48561526  0.55831396     0.04800
H3220       H  0.51942914  0.43012354  0.54753743     0.08000
H3221       H  0.56653453  0.47519360  0.53493294     0.08000
H3222       H  0.68448435  0.95123132  0.61394977     0.08000
H3223       H  0.69815707  0.93488867  0.58955676     0.08000
H3224       H  0.65409593  0.89377305  0.60540543     0.04700
C3225       C  0.97518977  0.15934299  0.57980433    -0.21100
C3226       C  0.99153602  0.13409822  0.58780976    -0.07600
C3227       C  0.01058013  0.11731179  0.57348050     0.13200
C3228       C  0.00158105  0.11579681  0.55193397    -0.21100
C3229       C  0.97371714  0.12966618  0.54495665    -0.07600
C3230       C  0.96391993  0.15542111  0.55865983     0.13200
C3231       C  0.93671714  0.17395489  0.55187871    -0.24500
H3232       H  0.96369848  0.17526262  0.59061922     0.14500
H3233       H  0.01222854  0.09936163  0.54097106     0.14500
C3234       C  0.03766316  0.09832286  0.58040855    -0.24400
H3235       H  0.93788113  0.19871352  0.56338178     0.04800
H3236       H  0.90253107  0.14623443  0.55107225     0.08000
H3237       H  0.94794516  0.19000635  0.53642226     0.08000
H3238       H  0.01783554  0.06685574  0.58902583     0.08000
H3239       H  0.56485905  0.11864128  0.59090080     0.08000
H3240       H  0.05246772  0.09062535  0.56685061     0.04700
C3241       C  0.91449618  0.51876175  0.57325351    -0.21100
C3242       C  0.88587892  0.02306403  0.58804270    -0.07600
C3243       C  0.84273106  0.00726922  0.58205717     0.13200
C3244       C  0.82895385  0.98798775  0.56205240    -0.21100
C3245       C  0.85801172  0.98646692  0.54747712    -0.07600
C3246       C  0.90186585  0.50348937  0.55252027     0.13200
C3247       C  0.93487054  0.50535522  0.53711193    -0.24500
H3248       H  0.94723398  0.52983067  0.57819205     0.14500
H3249       H  0.79518628  0.97411776  0.55779534     0.14500
C3250       C  0.81117435  0.00979731  0.59690875    -0.24400
H3251       H  0.96698489  0.51759126  0.54470364     0.04800
H3252       H  0.93946323  0.52821540  0.52424392     0.08000
H3253       H  0.92380674  0.47197500  0.53012818     0.08000
H3254       H  0.82333102  0.04520344  0.60128825     0.08000
H3255       H  0.80780996  0.99093122  0.61131122     0.08000
H3256       H  0.77837901  0.99550812  0.58971662     0.04700
C3257       C  0.87094055  0.35118729  0.57877406    -0.21100
C3258       C  0.86089501  0.31288801  0.59017417    -0.07600
C3259       C  0.82905439  0.27082061  0.58178917     0.13200
C3260       C  0.81397481  0.26784051  0.56123441    -0.21100
C3261       C  0.82944691  0.30562416  0.54847685    -0.07600
C3262       C  0.85521668  0.34798369  0.55820565     0.13200
C3263       C  0.86614041  0.38984037  0.54726651    -0.24500
H3264       H  0.89382915  0.38398851  0.58525822     0.14500
H3265       H  0.79054661  0.23512151  0.55500740     0.14500
C3266       C  0.81008839  0.22833237  0.59400435    -0.24400
H3267       H  0.88458596  0.39368065  0.53268249     0.04800
H3268       H  0.88588929  0.41957026  0.55750596     0.08000
H3269       H  0.83532011  0.38809630  0.54344143     0.08000
H3270       H  0.82138114  0.23457409  0.61050761     0.08000
H3271       H  0.81894817  0.20534523  0.58637773     0.08000
H3272       H  0.77399131  0.21167174  0.59429629     0.04700
C3273       C  0.96270125  0.34788004  0.56551536    -0.21100
C3274       C  0.97215130  0.32468460  0.58019723    -0.07600
C3275       C  0.48615068  0.29801932  0.57271777     0.13200
C3276       C  0.48745910  0.28978771  0.55111916    -0.21100
C3277       C  0.97324869  0.30796973  0.53681968    -0.07600
C3278       C  0.96254358  0.33937904  0.54386091     0.13200
C3279       C  0.94863102  0.36194377  0.52861829    -0.24500
H3280       H  0.95291019  0.37074119  0.57106378     0.14500
H3281       H  0.49821199  0.26750350  0.54588384     0.14500
C3282       C  0.50082866  0.27697414  0.58842122    -0.24400
H3283       H  0.94323210  0.38688534  0.53673452     0.04800
H3284       H  0.91805138  0.33683515  0.52053102     0.08000
H3285       H  0.97463051  0.37992771  0.51679125     0.08000
H3286       H  0.52709850  0.30346789  0.59841085     0.08000
H3287       H  0.51391982  0.25779789  0.58058813     0.08000
H3288       H  0.47301842  0.25398555  0.59850404     0.04700
C3289       C  0.91201598  0.24700854  0.17060039    -0.21100
C3290       C  0.93600971  0.25642449  0.18886356    -0.07600
C3291       C  0.91080971  0.23113128  0.20594261     0.13200
C3292       C  0.88085418  0.18544723  0.20204158    -0.21100
C3293       C  0.87225057  0.16873452  0.18107757    -0.07600
C3294       C  0.88587753  0.20159775  0.16496977     0.13200
C3295       C  0.87925012  0.19217960  0.14203038    -0.24500
H3296       H  0.92486987  0.27185838  0.15857078     0.14500
H3297       H  0.86666564  0.16326333  0.21518182     0.14500
C3298       C  0.92068407  0.25048478  0.22784347    -0.24400
H3299       H  0.90992405  0.19795514  0.13476839     0.04800
H3300       H  0.87055042  0.21483279  0.13456951     0.08000
H3301       H  0.85213056  0.15853381  0.13916356     0.08000
H3302       H  0.95532685  0.26371172  0.23193941     0.08000
H3303       H  0.89991451  0.22502315  0.23953106     0.08000
H3304       H  0.91414159  0.27814124  0.22890234     0.04700
C3305       C  0.58840126  0.22266698  0.24100963    -0.21100
C3306       C  0.55731786  0.20021475  0.25690608    -0.07600
C3307       C  0.51414464  0.18999127  0.25384448     0.13200
C3308       C  0.50282430  0.19900138  0.23444567    -0.21100
C3309       C  0.53386716  0.21942261  0.21843237    -0.07600
C3310       C  0.57723538  0.23188389  0.22176241     0.13200
C3311       C  0.61201707  0.25568626  0.20534319    -0.24500
H3312       H  0.62188936  0.23277612  0.24315210     0.14500
H3313       H  0.96373110  0.18098613  0.23092468     0.14500
C3314       C  0.47994995  0.17224026  0.27079211    -0.24400
H3315       H  0.64496807  0.26602478  0.21131161     0.04800
H3316       H  0.61289040  0.28628215  0.20040997     0.08000
H3317       H  0.60519830  0.23332330  0.19148219     0.08000
H3318       H  0.49311615  0.17195209  0.28639864     0.08000
H3319       H  0.45333353  0.13789841  0.26646082     0.08000
H3320       H  0.95776355  0.18568645  0.27097514     0.04700
C3321       C  0.85593166  0.50857661  0.21483135    -0.21100
C3322       C  0.83053711  0.52751061  0.21152249    -0.07600
C3323       C  0.80353478  0.52631680  0.22825433     0.13200
C3324       C  0.80171255  0.50519036  0.24731496    -0.21100
C3325       C  0.82842580  0.48761264  0.25090000    -0.07600
C3326       C  0.85639138  0.49001839  0.23422509     0.13200
C3327       C  0.88811998  0.47432119  0.23591966    -0.24500
H3328       H  0.87736727  0.51032013  0.20237566     0.14500
H3329       H  0.78064958  0.50413906  0.25985035     0.14500
C3330       C  0.77221615  0.04343717  0.22770796    -0.24400
H3331       H  0.88127598  0.44928213  0.22336358     0.04800
H3332       H  0.92178170  0.50335591  0.23428673     0.08000
H3333       H  0.88694571  0.45825763  0.25062544     0.08000
H3334       H  0.75155241  0.03016421  0.21349904     0.08000
H3335       H  0.79374030  0.08019496  0.22655106     0.08000
H3336       H  0.75084874  0.03648706  0.24157976     0.04700
C3337       C  0.83410808  0.34899462  0.22136726    -0.21100
C3338       C  0.81741653  0.36619090  0.20702594    -0.07600
C3339       C  0.78832943  0.37917651  0.21397987     0.13200
C3340       C  0.78147208  0.38067816  0.23556039    -0.21100
C3341       C  0.80424330  0.37086391  0.25045707    -0.07600
C3342       C  0.82585099  0.34892695  0.24295223     0.13200
C3343       C  0.83967926  0.32444404  0.25704560    -0.24500
H3344       H  0.85473186  0.33680417  0.21577853     0.14500
H3345       H  0.76159352  0.39404383  0.24032487     0.14500
C3346       C  0.76749537  0.39514941  0.19877655    -0.24400
H3347       H  0.82567142  0.28959488  0.25112239     0.04800
H3348       H  0.82811217  0.32264765  0.27338022     0.08000
H3349       H  0.87554730  0.34101313  0.25719845     0.08000
H3350       H  0.74720677  0.36797031  0.18730157     0.08000
H3351       H  0.79308047  0.42456067  0.19022523     0.08000
H3352       H  0.74624213  0.40514760  0.20686815     0.04700
C3353       C  0.55856029  0.35348199  0.23434127    -0.21100
C3354       C  0.53160661  0.36045895  0.24810711    -0.07600
C3355       C  0.49761612  0.36429020  0.23936034     0.13200
C3356       C  0.49458209  0.36609609  0.21746425    -0.21100
C3357       C  0.52481519  0.36464866  0.20389757    -0.07600
C3358       C  0.55662162  0.35719182  0.21239370     0.13200
C3359       C  0.59072760  0.35704860  0.19857486    -0.24500
H3360       H  0.58374300  0.34902242  0.24077650     0.14500
H3361       H  0.46957692  0.37093226  0.21087343     0.14500
C3362       C  0.46394669  0.36600448  0.25294393    -0.24400
H3363       H  0.61478903  0.35357548  0.20788450     0.04800
H3364       H  0.60877202  0.38897407  0.19002672     0.08000
H3365       H  0.57502826  0.32894441  0.18703909     0.08000
H3366       H  0.47856157  0.39543324  0.26365811     0.08000
H3367       H  0.94712707  0.33551695  0.26153559     0.08000
H3368       H  0.94117669  0.36910701  0.24236203     0.04700
C3369       C  0.01085220  0.48328939  0.17555672    -0.21100
C3370       C  0.02099209  0.46866340  0.15698745    -0.07600
C3371       C  0.99998312  0.46941793  0.13850508     0.13200
C3372       C  0.95828137  0.46324582  0.14036791    -0.21100
C3373       C  0.94029307  0.46007544  0.16043133    -0.07600
C3374       C  0.96982726  0.47859081  0.17753181     0.13200
C3375       C  0.95836102  0.49091600  0.19808187    -0.24500
H3376       H  0.03059281  0.48995906  0.18950389     0.14500
H3377       H  0.93823863  0.45509177  0.12642806     0.14500
C3378       C  0.51475500  0.47125020  0.11790371    -0.24400
H3379       H  0.98442923  0.52515963  0.20292417     0.04800
H3380       H  0.95490641  0.46697530  0.21022786     0.08000
H3381       H  0.92808254  0.49152322  0.19654886     0.08000
H3382       H  0.49237175  0.43962579  0.10927663     0.08000
H3383       H  0.54757921  0.47539348  0.11883446     0.08000
H3384       H  0.51789488  0.49976392  0.10905082     0.04700
C3385       C  0.62460381  0.49760796  0.24583111    -0.21100
C3386       C  0.63442711  0.46759144  0.25484065    -0.07600
C3387       C  0.65719563  0.45165508  0.24247376     0.13200
C3388       C  0.66692930  0.46457292  0.22148793    -0.21100
C3389       C  0.65668879  0.49423401  0.21273669    -0.07600
C3390       C  0.63531718  0.51102675  0.22501971     0.13200
C3391       C  0.62247809  0.54242232  0.21652691    -0.24500
H3392       H  0.60737099  0.51002077  0.25499376     0.14500
H3393       H  0.68487954  0.45333842  0.21208180     0.14500
C3394       C  0.67283854  0.42218102  0.25075923    -0.24400
H3395       H  0.58681253  0.52764143  0.21846622     0.04800
H3396       H  0.62991281  0.54910420  0.19961689     0.08000
H3397       H  0.63991390  0.57464206  0.22539801     0.08000
H3398       H  0.64604490  0.39178344  0.25802941     0.08000
H3399       H  0.69941010  0.44125768  0.26231500     0.08000
H3400       H  0.68661355  0.41085079  0.23813185     0.04700
C3401       C  0.70645590  0.24172521  0.22986529    -0.21100
C3402       C  0.68227421  0.21248168  0.21322293    -0.07600
C3403       C  0.64513350  0.17042218  0.21770226     0.13200
C3404       C  0.63335597  0.15889935  0.23868268    -0.21100
C3405       C  0.65721238  0.18863908  0.25526135    -0.07600
C3406       C  0.69432709  0.23041708  0.25075363     0.13200
C3407       C  0.72132672  0.26398600  0.26766571    -0.24500
H3408       H  0.73559831  0.27353736  0.22651956     0.14500
H3409       H  0.60375535  0.12756770  0.24209125     0.14500
C3410       C  0.61798098  0.13735273  0.20061433    -0.24400
H3411       H  0.72116366  0.29529107  0.26551646     0.04800
H3412       H  0.75500925  0.27107948  0.26659433     0.08000
H3413       H  0.70980481  0.25185713  0.28372764     0.08000
H3414       H  0.63838440  0.12819706  0.19114310     0.11600
H3415       H  0.60403253  0.15213673  0.19037153     0.08000
H3416       H  0.59031701  0.10616944  0.20708377     0.04700
C3417       C  0.77539475  0.14870077  0.19397972    -0.21100
C3418       C  0.76186080  0.12464460  0.17482754    -0.07600
C3419       C  0.77702003  0.14876062  0.15588780     0.13200
C3420       C  0.79748208  0.19548826  0.15688452    -0.21100
C3421       C  0.79552843  0.21625540  0.17554950    -0.07600
C3422       C  0.79457613  0.19515873  0.19438913     0.13200
C3423       C  0.80538889  0.21943265  0.21524214    -0.24500
H3424       H  0.76836410  0.13129644  0.20869832     0.14500
H3425       H  0.80393411  0.21339815  0.14234807     0.14500
C3426       C  0.76939441  0.12639738  0.13454514    -0.24400
H3427       H  0.82879340  0.21393397  0.22389150     0.04800
H3428       H  0.77536822  0.20659989  0.22483049     0.08000
H3429       H  0.82026049  0.25587683  0.21315165     0.08000
H3430       H  0.73417429  0.10714389  0.13081526     0.08000
H3431       H  0.78198104  0.10337457  0.13413850     0.08000
H3432       H  0.78621714  0.15117635  0.12199932     0.04700
C3433       C  0.83085422  0.04104148  0.09542878    -0.21100
C3434       C  0.81273246  0.49853895  0.09235266    -0.07600
C3435       C  0.81007063  0.47396437  0.11019061     0.13200
C3436       C  0.82329980  0.49569644  0.13010619    -0.21100
C3437       C  0.84162283  0.54221364  0.13259458    -0.07600
C3438       C  0.84678906  0.06289906  0.11482167     0.13200
C3439       C  0.87391820  0.11266454  0.11377480    -0.24500
H3440       H  0.83611908  0.06082716  0.08158711     0.14500
H3441       H  0.81785875  0.47576382  0.14385681     0.14500
C3442       C  0.79419845  0.42529800  0.10841618    -0.24400
H3443       H  0.89545235  0.12286207  0.09993726     0.04800
H3444       H  0.89580766  0.12757353  0.12744102     0.08000
H3445       H  0.85218020  0.12569489  0.11095029     0.08000
H3446       H  0.81582778  0.42010656  0.09774205     0.08000
H3447       H  0.76062830  0.40640943  0.10226696     0.08000
H3448       H  0.79483294  0.41221104  0.12397094     0.04700
C3449       C  0.69960877  0.44623479  0.11138943    -0.21100
C3450       C  0.68825804  0.46379201  0.09469851    -0.07600
C3451       C  0.66848434  0.48876656  0.09887218     0.13200
C3452       C  0.66440953  0.49943219  0.11979217    -0.21100
C3453       C  0.67914524  0.48480893  0.13644994    -0.07600
C3454       C  0.69582252  0.45688795  0.13227065     0.13200
C3455       C  0.71246278  0.44107930  0.14968350    -0.24500
H3456       H  0.71349141  0.42602304  0.10799269     0.14500
H3457       H  0.65160444  0.52091596  0.12315570     0.14500
C3458       C  0.65240208  0.50429844  0.08115739    -0.24400
H3459       H  0.72497917  0.41990534  0.14359731     0.04800
H3460       H  0.68565197  0.42106441  0.16085335     0.08000
H3461       H  0.73949654  0.47023768  0.15816530     0.08000
H3462       H  0.62924316  0.47506718  0.07129495     0.08000
H3463       H  0.67450131  0.02814818  0.07253720     0.08000
H3464       H  0.63483817  0.52071547  0.08700167     0.04700
C3465       C  0.54276974  0.33183896  0.09387575    -0.21100
C3466       C  0.50204091  0.29819302  0.08615045    -0.07600
C3467       C  0.46426822  0.28785220  0.09784186     0.13200
C3468       C  0.46892619  0.30735057  0.11792628    -0.21100
C3469       C  0.51014816  0.33859961  0.12611944    -0.07600
C3470       C  0.54682986  0.35265125  0.11334200     0.13200
C3471       C  0.59033522  0.39111933  0.11989683    -0.24500
H3472       H  0.57210683  0.34113705  0.08507804     0.14500
H3473       H  0.94105579  0.30085235  0.12710495     0.14500
C3474       C  0.91780922  0.25737389  0.08998509    -0.24400
H3475       H  0.61542461  0.39511272  0.10858395     0.04800
H3476       H  0.59974425  0.38610204  0.13565566     0.08000
H3477       H  0.58871900  0.42185558  0.12029718     0.08000
H3478       H  0.89873927  0.22708609  0.09951145     0.08000
H3479       H  0.91731189  0.24694885  0.07341804     0.08000
H3480       H  0.90162608  0.27710659  0.09045657     0.04700
C3481       C  0.99131642  0.17378030  0.13227356    -0.21100
C3482       C  0.52173568  0.22119817  0.14169155    -0.07600
C3483       C  0.55428249  0.25552665  0.12955180     0.13200
C3484       C  0.55440112  0.24917966  0.10777407    -0.21100
C3485       C  0.52317547  0.20866829  0.09810872    -0.07600
C3486       C  0.99386434  0.16701801  0.11058582     0.13200
C3487       C  0.96991753  0.12076486  0.10094946    -0.24500
H3488       H  0.96769818  0.14654429  0.14182365     0.14500
H3489       H  0.57711692  0.27679479  0.09815885     0.14500
C3490       C  0.58800146  0.29903279  0.13969445    -0.24400
H3491       H  0.94823627  0.09542029  0.11248489     0.04800
H3492       H  0.99409999  0.11214422  0.09539126     0.08000
H3493       H  0.95042848  0.11910046  0.08717824     0.08000
H3494       H  0.60659816  0.29272966  0.15155163     0.08000
H3495       H  0.57172228  0.31478421  0.14773821     0.08000
H3496       H  0.61148039  0.32249935  0.12803711     0.04700
C3497       C  0.81688827  0.29467293  0.10020454    -0.21100
C3498       C  0.78104705  0.29374264  0.09112246    -0.07600
C3499       C  0.75878189  0.31099784  0.10272349     0.13200
C3500       C  0.77212586  0.32674070  0.12333532    -0.21100
C3501       C  0.81014588  0.33111668  0.13151099    -0.07600
C3502       C  0.83222651  0.31392323  0.12007614     0.13200
C3503       C  0.87172048  0.31484288  0.12855287    -0.24500
H3504       H  0.83318976  0.28042465  0.09166044     0.14500
H3505       H  0.75497968  0.33927134  0.13245934     0.14500
C3506       C  0.72280720  0.31570510  0.09343923    -0.24400
H3507       H  0.86592656  0.28051914  0.12803270     0.04800
H3508       H  0.87927385  0.32694758  0.14506770     0.08000
H3509       H  0.90041013  0.33676853  0.11869738     0.08000
H3510       H  0.69773023  0.28447251  0.08581757     0.08000
H3511       H  0.73653420  0.34211321  0.08149014     0.08000
H3512       H  0.70649903  0.32532984  0.10548566     0.04700
C3513       C  0.65543211  0.20275343  0.10192031    -0.21100
C3514       C  0.67446554  0.18014910  0.09246459    -0.07600
C3515       C  0.68393026  0.15397752  0.10511849     0.13200
C3516       C  0.68490258  0.15993990  0.12690733    -0.21100
C3517       C  0.67725470  0.19213377  0.13604876    -0.07600
C3518       C  0.65892816  0.21107741  0.12372332     0.13200
C3519       C  0.64712938  0.24303288  0.13320494    -0.24500
H3520       H  0.64284087  0.21853001  0.09223065     0.14500
H3521       H  0.69622857  0.14305147  0.13667526     0.14500
C3522       C  0.69578207  0.12203878  0.09568413    -0.24400
H3523       H  0.63487222  0.25620120  0.12111161     0.04800
H3524       H  0.67620882  0.27185709  0.14072061     0.08000
H3525       H  0.62135926  0.22567380  0.14519852     0.08000
H3526       H  0.68845678  0.11650925  0.07861915     0.08000
H3527       H  0.67674621  0.08944444  0.10348235     0.08000
H3528       H  0.73097996  0.13520730  0.09786523     0.04700
C3529       C  0.71220754  0.74049177  0.04256748     0.85700
C3530       C  0.67881038  0.70542421  0.05742636    -0.54500
C3531       C  0.69715941  0.69338111  0.07273707     0.08700
C3532       C  0.74806533  0.71755556  0.07123281     0.19600
C3533       C  0.74440230  0.77916872  0.05698950    -0.55200
C3534       C  0.76159257  0.76684281  0.07251456     0.08800
C3535       C  0.73732961  0.71922824  0.03407183    -0.54800
C3536       C  0.75911340  0.71000088  0.04860630     0.09300
H3537       H  0.64445869  0.69465955  0.05721171     0.13800
H3538       H  0.76355355  0.70825732  0.08347943    -0.00400
H3539       H  0.75042630  0.81279613  0.05589361     0.14200
H3540       H  0.73084515  0.70322825  0.01891928     0.13900
C3541       C  0.53579922  0.74271265  0.04359075     0.85700
C3542       C  0.53054942  0.77912979  0.05485022    -0.54500
C3543       C  0.49840911  0.76355222  0.06975388     0.08700
C3544       C  0.47268759  0.71246013  0.07105343     0.19600
C3545       C  0.54112039  0.71725043  0.06144359    -0.55200
C3546       C  0.50884783  0.70210646  0.07622742     0.08800
C3547       C  0.49023234  0.70992478  0.03447567    -0.54800
C3548       C  0.95910969  0.69916850  0.04869717     0.09300
H3549       H  0.55299022  0.81459276  0.05259569     0.13800
H3550       H  0.94941600  0.70386852  0.08302225    -0.00400
H3551       H  0.57129217  0.71774204  0.06396584     0.14200
H3552       H  0.48442458  0.69962064  0.01820848     0.13900
C3553       C  0.72323829  0.92784215  0.04786711     0.85700
C3554       C  0.76073248  0.93825197  0.06340968    -0.54500
C3555       C  0.77400383  0.97674032  0.07542257     0.08700
C3556       C  0.75391606  0.50227180  0.06997693     0.19600
C3557       C  0.68756698  0.92632221  0.06220894    -0.55200
C3558       C  0.70127256  0.96411968  0.07420863     0.08800
C3559       C  0.74191832  0.97076705  0.03544838    -0.54800
C3560       C  0.75766929  0.51092893  0.04646638     0.09300
H3561       H  0.77446635  0.91721786  0.06492882     0.13800
H3562       H  0.76328846  0.53275802  0.07961149    -0.00400
H3563       H  0.65662792  0.89569690  0.06492442     0.14200
H3564       H  0.75139904  0.97190983  0.01935441     0.13900
O3565       O  0.72564537  0.88686395  0.98542351    -0.82600
C3566       C  0.57368782  0.76218228  0.02789710     0.96800
O3567       O  0.59893617  0.80414452  0.02669473    -0.71700
O3568       O  0.67221350  0.88201122  0.02130307    -0.75300
Al3569     Al  0.63120071  0.83623575  0.00256372     1.49000
C3570       C  0.70462613  0.88868902  0.03201957     0.92100
O3571       O  0.72184162  0.79232534  0.01638677    -0.81500
O3572       O  0.67036690  0.74193308  0.97989081    -0.75000
Al3573     Al  0.71767070  0.83622645  0.00094724     1.90100
O3574       O  0.65430809  0.73883695  0.02221984    -0.74100
O3575       O  0.59519061  0.74544895  0.97311503    -0.74000
O3576       O  0.57972052  0.73656086  0.01593496    -0.79600
O3577       O  0.58308779  0.79712787  0.98509542    -0.77800
O3578       O  0.65890652  0.80616119  0.00027002    -1.14000
O3579       O  0.65964173  0.87243940  0.97848047    -0.73100
C3580       C  0.70048894  0.89632262  0.97606838     0.97600
C3581       C  0.69469478  0.75750247  0.02597198     0.94000
Al3582     Al  0.62785809  0.74621351  0.99776996     1.55600
O3583       O  0.72230607  0.86622485  0.02786853    -0.77800
C3584       C  0.57159590  0.76283480  0.97381328     0.98100
C3585       C  0.70707153  0.76935149  0.97177689     0.93000
O3586       O  0.72313054  0.81084429  0.97472291    -0.83100
C3587       C  0.70334010  0.71808542  0.19294793     0.79500
N3588       N  0.67976064  0.70454256  0.17471522    -0.78800
C3589       C  0.70039046  0.70701143  0.15632712     0.81900
N3590       N  0.74318357  0.72067953  0.15657430    -0.78800
C3591       C  0.76597164  0.73049432  0.17468318     0.82000
N3592       N  0.74599444  0.73096693  0.19260054    -0.80500
C3593       C  0.67413623  0.01421688  0.19341703     0.79500
N3594       N  0.70668933  0.05770233  0.19315399    -0.78800
C3595       C  0.72876054  0.07628916  0.17528224     0.81900
N3596       N  0.71702524  0.05104202  0.15757903    -0.78800
C3597       C  0.68430627  0.00791714  0.15738471     0.82000
N3598       N  0.66305319  0.98866574  0.17549917    -0.80500
C3599       C  0.52568092  0.87789949  0.18225999     0.79500
N3600       N  0.51761238  0.84932578  0.16568090    -0.78800
C3601       C  0.51294412  0.86126478  0.14606074     0.81900
N3602       N  0.51716674  0.90141067  0.14316567    -0.78800
C3603       C  0.52589295  0.93033571  0.15937304     0.82000
N3604       N  0.52946108  0.91793546  0.17893838    -0.80500
C3605       C  0.83608612  0.87478625  0.18659294     0.79500
N3606       N  0.81357460  0.84834670  0.16989007    -0.78800
C3607       C  0.83030486  0.86062304  0.15035554     0.81900
N3608       N  0.86854845  0.89941909  0.14755055    -0.78800
C3609       C  0.89138978  0.92627496  0.16401259     0.82000
N3610       N  0.87516670  0.91316706  0.18365198    -0.80500
C3611       C  0.86667116  0.94679053  0.29681890     0.85700
C3612       C  0.85208394  0.90534021  0.28266049    -0.54500
C3613       C  0.81254474  0.88910535  0.27249613     0.08700
C3614       C  0.79066080  0.91583245  0.27905429     0.19600
C3615       C  0.86462526  0.98060814  0.28254519    -0.55200
C3616       C  0.82561799  0.96420252  0.27219923     0.08800
C3617       C  0.82952024  0.93355069  0.31207451    -0.54800
C3618       C  0.78927298  0.91540515  0.30347593     0.09300
H3619       H  0.87567520  0.89618743  0.27841154     0.13800
H3620       H  0.75761710  0.90323003  0.27265575    -0.00400
H3621       H  0.89346102  0.01224776  0.27853750     0.14200
H3622       H  0.83546536  0.94086213  0.32851993     0.13900
C3623       C  0.57435784  0.63182554  0.29875473     0.85700
C3624       C  0.59586112  0.67036678  0.31484429    -0.54500
C3625       C  0.61720542  0.71207859  0.30666779     0.08700
C3626       C  0.61946259  0.71118150  0.28287727     0.19600
C3627       C  0.54807958  0.64350357  0.28394408    -0.55200
C3628       C  0.57207588  0.68529176  0.27554112     0.08800
C3629       C  0.61252506  0.63796847  0.28530306    -0.54800
C3630       C  0.63576507  0.67942727  0.27653417     0.09300
H3631       H  0.59887104  0.66434592  0.33096933     0.13800
H3632       H  0.63895321  0.74539503  0.27654084    -0.00400
H3633       H  0.51489383  0.61928654  0.27910579     0.14200
H3634       H  0.61679733  0.61046522  0.28067951     0.13900
C3635       C  0.59437838  0.89025779  0.30132781     0.85700
C3636       C  0.56520802  0.85831970  0.28337495    -0.54500
C3637       C  0.54821070  0.87686330  0.27049265     0.08700
C3638       C  0.56217245  0.92521566  0.27710888     0.19600
C3639       C  0.62883454  0.93245205  0.29004164    -0.55200
C3640       C  0.61223136  0.94891688  0.27616365     0.08800
C3641       C  0.56564842  0.90439592  0.31272287    -0.54800
C3642       C  0.54957942  0.92403500  0.30045858     0.09300
H3643       H  0.56217770  0.82634900  0.27991395     0.13800
H3644       H  0.54934162  0.94124881  0.26702639    -0.00400
H3645       H  0.66342043  0.94505515  0.29136608     0.14200
H3646       H  0.55917840  0.90001087  0.32934451     0.13900
O3647       O  0.74166376  0.91409018  0.36183492    -0.82600
C3648       C  0.63181765  0.75360648  0.31940468     0.96800
O3649       O  0.67193297  0.78238036  0.32122639    -0.71700
O3650       O  0.74485032  0.86116690  0.32910653    -0.75300
Al3651     Al  0.69672546  0.81691144  0.34635575     1.49000
C3652       C  0.74962153  0.89236392  0.31734655     0.92100
O3653       O  0.64823378  0.90308984  0.32710741    -0.81500
O3654       O  0.59741193  0.85189358  0.36091680    -0.75000
Al3655     Al  0.69173681  0.90229685  0.34450170     1.90100
O3656       O  0.60151625  0.83293025  0.31880265    -0.74100
O3657       O  0.60363613  0.78084070  0.37077834    -0.74000
O3658       O  0.60373829  0.75930074  0.32892000    -0.79600
O3659       O  0.65490156  0.76651803  0.36308932    -0.77800
O3660       O  0.66497232  0.84278155  0.34527925    -1.14000
O3661       O  0.72593104  0.84784254  0.37186644    -0.73100
C3662       C  0.75056378  0.88983504  0.37277790     0.97600
C3663       C  0.61602494  0.87404521  0.31627494     0.94000
Al3664     Al  0.60667135  0.80920197  0.34490077     1.55600
O3665       O  0.72341152  0.90621887  0.31898105    -0.77800
C3666       C  0.61948952  0.75619019  0.37234615     0.98100
C3667       C  0.62209298  0.88824283  0.37092576     0.93000
O3668       O  0.66316322  0.90676504  0.36947760    -0.83100
C3669       C  0.52026894  0.73048667  0.19985405     0.79500
N3670       N  0.52779815  0.71918608  0.18045035    -0.78800
C3671       C  0.01561706  0.73163632  0.16385542     0.81900
N3672       N  0.99001328  0.74943394  0.16619108    -0.78800
C3673       C  0.98057255  0.75915288  0.18564371     0.82000
N3674       N  0.99834181  0.75202273  0.20244905    -0.80500
C3675       C  0.83169640  0.04933278  0.19269244     0.79500
N3676       N  0.83044087  0.03194037  0.17308457    -0.78800
C3677       C  0.84631303  0.56212931  0.15463373     0.81900
N3678       N  0.85831444  0.60583075  0.15741550    -0.78800
C3679       C  0.86013115  0.62373934  0.17682135     0.82000
N3680       N  0.84967376  0.59701418  0.19372776    -0.80500
C3681       C  0.95044803  0.86312326  0.63207248     0.85700
C3682       C  0.97826293  0.86267288  0.61376620    -0.54500
C3683       C  0.95759001  0.82428956  0.60169238     0.08700
C3684       C  0.91093525  0.78965752  0.60940265     0.19600
C3685       C  0.90792851  0.85409145  0.62132666    -0.55200
C3686       C  0.88776729  0.81637337  0.60881165     0.08800
C3687       C  0.93720881  0.82058076  0.64426621    -0.54800
C3688       C  0.91471122  0.78161757  0.63295565     0.09300
H3689       H  0.51179803  0.89163670  0.61039778     0.13800
H3690       H  0.89530893  0.75855074  0.59969365    -0.00400
H3691       H  0.89745967  0.87814094  0.62184357     0.14200
H3692       H  0.94340355  0.82122207  0.66091554     0.13900
C3693       C  0.95730496  0.55866452  0.63514883     0.85700
C3694       C  0.91971356  0.52384656  0.62122186    -0.54500
C3695       C  0.90203998  0.54109280  0.60862558     0.08700
C3696       C  0.92138174  0.59127652  0.61212029     0.19600
C3697       C  0.98953094  0.59389129  0.61998886    -0.55200
C3698       C  0.97079820  0.61063645  0.60729715     0.08800
C3699       C  0.93948734  0.58349285  0.64752108    -0.54800
C3700       C  0.91845317  0.59872539  0.63591092     0.09300
H3701       H  0.91197348  0.99133130  0.61910352     0.13800
H3702       H  0.90465825  0.60402452  0.60248113    -0.00400
H3703       H  0.52466984  0.60429597  0.61995988     0.14200
H3704       H  0.94646276  0.59195999  0.66385489     0.13900
C3705       C  0.63112644  0.54543171  0.63514957     0.85700
C3706       C  0.63497336  0.57204640  0.61515785    -0.54500
C3707       C  0.66709277  0.57637331  0.60129376     0.08700
C3708       C  0.69079638  0.55279912  0.60902782     0.19600
C3709       C  0.62388297  0.50093498  0.62638705    -0.55200
C3710       C  0.65221701  0.50382570  0.61155664     0.08800
C3711       C  0.67741997  0.57060037  0.64407245    -0.54800
C3712       C  0.70886791  0.57360652  0.63097875     0.09300
H3713       H  0.61170399  0.58185825  0.61136101     0.13800
H3714       H  0.71742780  0.55591471  0.59886311    -0.00400
H3715       H  0.59189031  0.96738876  0.62939340     0.14200
H3716       H  0.68593830  0.59002652  0.65845849     0.13900
O3717       O  0.58553385  0.55285858  0.69689032    -0.82600
C3718       C  0.97078553  0.90458110  0.64637913     0.96800
O3719       O  0.01011428  0.92369147  0.65234994    -0.71700
O3720       O  0.58552909  0.99948431  0.66325135    -0.75300
Al3721     Al  0.53505964  0.95669942  0.67847001     1.49000
C3722       C  0.59548636  0.53349989  0.65165490     0.92100
O3723       O  0.50589419  0.56163230  0.66144196    -0.81500
O3724       O  0.94269755  0.00066029  0.69150888    -0.75000
Al3725     Al  0.54100873  0.54938856  0.67894284     1.90100
O3726       O  0.95664151  0.99599781  0.64935864    -0.74100
O3727       O  0.93646492  0.92209368  0.69562409    -0.74000
O3728       O  0.94596621  0.91661531  0.65405838    -0.79600
O3729       O  0.48935749  0.90675173  0.69351393    -0.77800
O3730       O  0.50836834  0.98798161  0.67694332    -1.14000
O3731       O  0.56337013  0.98383008  0.70496970    -0.73100
C3732       C  0.59132346  0.52536671  0.70671776     0.97600
C3733       C  0.97522723  0.53749152  0.64891470     0.94000
Al3734     Al  0.95091402  0.96151242  0.67298240     1.55600
O3735       O  0.57561734  0.55441826  0.65421875    -0.77800
C3736       C  0.95177799  0.89788087  0.70004817     0.98100
C3737       C  0.96857233  0.53510500  0.70314281     0.93000
O3738       O  0.50899494  0.55129632  0.70319376    -0.83100
C3739       C  0.57813836  0.89167195  0.53599088     0.79500
N3740       N  0.57893457  0.91312013  0.51801961    -0.78800
C3741       C  0.58214518  0.89673854  0.49881259     0.81900
N3742       N  0.58841220  0.86171987  0.49806772    -0.78800
C3743       C  0.59448425  0.84512216  0.51584569     0.82000
N3744       N  0.58232231  0.85536662  0.53420848    -0.80500
C3745       C  0.83972359  0.46294470  0.52650405     0.79500
N3746       N  0.85657299  0.48341941  0.50789474    -0.78800
C3747       C  0.83405818  0.96490377  0.49057758     0.81900
N3748       N  0.79306734  0.92872241  0.49150068    -0.78800
C3749       C  0.77564142  0.90915236  0.50993905     0.82000
N3750       N  0.79922302  0.42613606  0.52693255    -0.80500
C3751       C  0.94793506  0.61295868  0.52366065     0.79500
N3752       N  0.90378161  0.59226419  0.52290222    -0.78800
C3753       C  0.88232999  0.58146667  0.50422109     0.81900
N3754       N  0.40807307  0.58989994  0.48731179    -0.78800
C3755       C  0.45201202  0.61121861  0.48725952     0.82000
N3756       N  0.97102103  0.62385016  0.50551852    -0.80500
C3757       C  0.45904098  0.78364102  0.47905230     0.79500
N3758       N  0.47582751  0.80634960  0.49755867    -0.78800
C3759       C  0.45916998  0.78494203  0.51598604     0.81900
N3760       N  0.42590590  0.74195138  0.51567617    -0.78800
C3761       C  0.40877316  0.71933011  0.49741093     0.82000
N3762       N  0.42576512  0.74044561  0.47912784    -0.80500
C3763       C  0.82114319  0.79541063  0.52541630     0.79500
N3764       N  0.82705390  0.82751069  0.51145568    -0.78800
C3765       C  0.82175095  0.81736131  0.49037844     0.81900
N3766       N  0.81120232  0.77618578  0.48354237    -0.78800
C3767       C  0.80579093  0.74458985  0.49704661     0.82000
N3768       N  0.81083927  0.75465854  0.51776936    -0.80500
C3769       C  0.65532945  0.59179278  0.51161014     0.79500
N3770       N  0.63702755  0.61264628  0.50218637    -0.78800
C3771       C  0.64742218  0.62495819  0.48185923     0.81900
N3772       N  0.67691966  0.61868062  0.47151798    -0.78800
C3773       C  0.69576266  0.59879815  0.48084877     0.82000
N3774       N  0.68309317  0.58414424  0.50055604    -0.80500
C3775       C  0.55301939  0.94068966  0.38039222     0.85700
C3776       C  0.51759532  0.89323418  0.38751346    -0.54500
C3777       C  0.53192377  0.87359866  0.40113613     0.08700
C3778       C  0.58181012  0.90149351  0.40393818     0.19600
C3779       C  0.57366374  0.96632178  0.40120054    -0.55200
C3780       C  0.58814645  0.94521026  0.41387764     0.08800
C3781       C  0.58815004  0.93427830  0.37006946    -0.54800
C3782       C  0.60205043  0.91185120  0.38173582     0.09300
H3783       H  0.48381758  0.87849014  0.38305454     0.13800
H3784       H  0.59575843  0.88599549  0.41360969    -0.00400
H3785       H  0.57330226  0.99597460  0.40605292     0.14200
H3786       H  0.59944237  0.94452413  0.35422001     0.13900
C3787       C  0.55058273  0.62923181  0.37770759     0.85700
C3788       C  0.58509850  0.63118001  0.39232446    -0.54500
C3789       C  0.59998066  0.66414093  0.40718935     0.08700
C3790       C  0.58429399  0.69704415  0.40396942     0.19600
C3791       C  0.51697580  0.63056698  0.39234352    -0.55200
C3792       C  0.53427854  0.66618505  0.40647264     0.08800
C3793       C  0.57223166  0.67468077  0.36732612    -0.54800
C3794       C  0.59241921  0.71034067  0.38076483     0.09300
H3795       H  0.59234490  0.60470463  0.39278299     0.13800
H3796       H  0.60009071  0.72700767  0.41444902    -0.00400
H3797       H  0.98376362  0.60487389  0.39328780     0.14200
H3798       H  0.56505236  0.67925482  0.35155573     0.13900
C3799       C  0.87379461  0.94353492  0.37992678     0.85700
C3800       C  0.87722933  0.98383549  0.39191669    -0.54500
C3801       C  0.84450872  0.97314263  0.40597265     0.08700
C3802       C  0.80915641  0.92307610  0.40544119     0.19600
C3803       C  0.86962414  0.91169219  0.39747896    -0.55200
C3804       C  0.83565195  0.90093097  0.41124683     0.08800
C3805       C  0.82895574  0.91907267  0.36959370    -0.54800
C3806       C  0.79505763  0.91015292  0.38225854     0.09300
H3807       H  0.90673560  0.51899850  0.39198314     0.13800
H3808       H  0.78160277  0.91524165  0.41605654    -0.00400
H3809       H  0.89286995  0.90106338  0.39951732     0.14200
H3810       H  0.82327918  0.90362296  0.35425365     0.13900
O3811       O  0.56047595  0.56098545  0.31170811    -0.82600
C3812       C  0.91014166  0.95878713  0.36378947     0.96800
O3813       O  0.91733270  0.99057162  0.35191179    -0.71700
O3814       O  0.49278390  0.56353235  0.36012653    -0.75300
Al3815     Al  0.96730150  0.53343191  0.33540167     1.49000
C3816       C  0.53322470  0.58892039  0.36293914     0.92100
O3817       O  0.55424177  0.00296905  0.36280603    -0.81500
O3818       O  0.49082959  0.93474776  0.31142928    -0.75000
Al3819     Al  0.55268004  0.52953650  0.33717578     1.90100
O3820       O  0.50216195  0.93501196  0.35416333    -0.74100
O3821       O  0.91522402  0.93572067  0.31886100    -0.74000
O3822       O  0.93210438  0.94012589  0.36163103    -0.79600
O3823       O  0.93771901  0.00426404  0.30968278    -0.77800
O3824       O  0.49515720  0.00183250  0.33575282    -1.14000
O3825       O  0.51211637  0.57991100  0.31862145    -0.73100
C3826       C  0.54678116  0.58744284  0.30952788     0.97600
C3827       C  0.53500856  0.96112166  0.36542226     0.94000
Al3828     Al  0.96290787  0.94175861  0.33637994     1.55600
O3829       O  0.55967335  0.58053570  0.35359231    -0.77800
C3830       C  0.90973530  0.96304473  0.30840019     0.98100
C3831       C  0.53161373  0.95007818  0.31057380     0.93000
O3832       O  0.55789119  0.98526078  0.32085273    -0.83100
C3833       C  0.92367188  0.85528237  0.71215754     0.85700
C3834       C  0.89434411  0.86032375  0.72794087    -0.54500
C3835       C  0.87347378  0.82578525  0.74140585     0.08700
C3836       C  0.87497579  0.78392945  0.73352005     0.19600
C3837       C  0.94919730  0.83841974  0.72492497    -0.55200
C3838       C  0.92287154  0.80036105  0.73636749     0.08800
C3839       C  0.89188371  0.81513058  0.69864174    -0.54800
C3840       C  0.86778728  0.77638271  0.70932605     0.09300
H3841       H  0.89787437  0.89264212  0.73119136     0.13800
H3842       H  0.85181749  0.75387919  0.74217894    -0.00400
H3843       H  0.98448207  0.85734760  0.72629508     0.14200
H3844       H  0.89210659  0.81596716  0.68168996     0.13900
C3845       C  0.63592495  0.54286004  0.71683596     0.85700
C3846       C  0.66986099  0.55545914  0.69943896    -0.54500
C3847       C  0.71178229  0.57458903  0.70605805     0.08700
C3848       C  0.71606073  0.57744105  0.72968656     0.19600
C3849       C  0.64221933  0.51156081  0.73098559    -0.55200
C3850       C  0.68440935  0.53051874  0.73797929     0.08800
C3851       C  0.65302835  0.58569452  0.73054611    -0.54800
C3852       C  0.69552498  0.60406017  0.73761625     0.09300
H3853       H  0.66032837  0.54731623  0.68335401     0.13800
H3854       H  0.75063418  0.59124248  0.73400075    -0.00400
H3855       H  0.61554159  0.48005043  0.73665526     0.14200
H3856       H  0.63078938  0.59545225  0.73652147     0.13900
C3857       C  0.94806161  0.55677467  0.71618143     0.85700
C3858       C  0.98209421  0.60067481  0.72711164    -0.54500
C3859       C  0.96487592  0.61960592  0.73970616     0.08700
C3860       C  0.91504954  0.59655104  0.73741285     0.19600
C3861       C  0.91726539  0.52832116  0.73383986    -0.55200
C3862       C  0.89972832  0.54872599  0.74589605     0.08800
C3863       C  0.91940848  0.56796210  0.70328358    -0.54800
C3864       C  0.90405259  0.59142964  0.71353938     0.09300
H3865       H  0.01588733  0.60983668  0.72876924     0.13800
H3866       H  0.90267589  0.61582928  0.74529133    -0.00400
H3867       H  0.91467303  0.49702190  0.73754783     0.14200
H3868       H  0.90810870  0.55404750  0.68779310     0.13900
O3869       O  0.85137687  0.59465677  0.64492278    -0.82600
C3870       C  0.85784990  0.73423594  0.69764754     0.96800
O3871       O  0.88755764  0.72515288  0.69498903    -0.71700
O3872       O  0.89026644  0.64965763  0.70238688    -0.75300
Al3873     Al  0.89453574  0.68343079  0.67714550     1.49000
C3874       C  0.88023303  0.60921577  0.70124210     0.92100
O3875       O  0.77624996  0.58084752  0.69140581    -0.81500
O3876       O  0.77975436  0.63796455  0.63855838    -0.75000
Al3877     Al  0.81434174  0.58945268  0.66832211     1.90100
O3878       O  0.75653802  0.62800899  0.68082470    -0.74100
O3879       O  0.84843826  0.72038146  0.64689303    -0.74000
O3880       O  0.82211283  0.71177372  0.68804286    -0.79600
O3881       O  0.90977455  0.72335613  0.65397364    -0.77800
O3882       O  0.83810799  0.64903964  0.66989008    -1.14000
O3883       O  0.91219737  0.64856716  0.65983053    -0.73100
C3884       C  0.89283759  0.61624579  0.64658346     0.97600
C3885       C  0.75018868  0.59531766  0.69197802     0.94000
Al3886     Al  0.80491333  0.67222216  0.66409290     1.55600
O3887       O  0.85374309  0.58448173  0.68713780    -0.77800
C3888       C  0.88928388  0.73821275  0.64439660     0.98100
C3889       C  0.75518865  0.59608018  0.63865831     0.93000
O3890       O  0.76601819  0.57410118  0.64973500    -0.83100
C3891       C  0.90762745  0.51924975  0.83335678     0.79500
N3892       N  0.88285338  0.51524742  0.85036683    -0.78800
C3893       C  0.89586234  0.51133743  0.86981451     0.81900
N3894       N  0.93550591  0.01273473  0.87390035    -0.78800
C3895       C  0.96286610  0.02171869  0.85762032     0.82000
N3896       N  0.94544176  0.51940939  0.83605175    -0.80500
C3897       C  0.92170302  0.86626113  0.83066638     0.79500
N3898       N  0.96432071  0.89659639  0.83491702    -0.78800
C3899       C  0.98003061  0.90701659  0.85485310     0.81900
N3900       N  0.95237906  0.88505087  0.87086428    -0.78800
C3901       C  0.90976098  0.85391572  0.86742704     0.82000
N3902       N  0.89437047  0.84466763  0.84714873    -0.80500
C3903       C  0.74644325  0.98633583  0.80843214     0.79500
N3904       N  0.73068945  0.94316954  0.80295553    -0.78800
C3905       C  0.71285166  0.91085441  0.81711505     0.81900
N3906       N  0.71634185  0.92249342  0.83762797    -0.78800
C3907       C  0.73149724  0.96507227  0.84404577     0.82000
N3908       N  0.74485784  0.50090940  0.83036022    -0.80500
C3909       C  0.47348515  0.76254991  0.81289246     0.79500
N3910       N  0.51184998  0.76859910  0.80604967    -0.78800
C3911       C  0.54103533  0.76904215  0.81927977     0.81900
N3912       N  0.53146195  0.76371235  0.84000063    -0.78800
C3913       C  0.49324016  0.75767449  0.84737056     0.82000
N3914       N  0.96553445  0.75891446  0.83365583    -0.80500
C3915       C  0.75266541  0.70241210  0.81686871     0.79500
N3916       N  0.74919072  0.73912308  0.81864240    -0.78800
C3917       C  0.74393827  0.75353069  0.83757601     0.81900
N3918       N  0.75455626  0.73918438  0.85470318    -0.78800
C3919       C  0.75880249  0.70304409  0.85354164     0.82000
N3920       N  0.75540213  0.68287393  0.83462016    -0.80500
C3921       C  0.00312304  0.65303933  0.82781830     0.79500
N3922       N  0.04577687  0.68461170  0.82926457    -0.78800
C3923       C  0.56713677  0.70161795  0.84734473     0.81900
N3924       N  0.54540128  0.68270653  0.86499633    -0.78800
C3925       C  0.00143876  0.64772728  0.86483231     0.82000
N3926       N  0.98023901  0.63317013  0.84579226    -0.80500
C3927       C  0.77516323  0.71334283  0.96962267     0.85700
C3928       C  0.74372681  0.67908883  0.95345152    -0.54500
C3929       C  0.73252478  0.69680410  0.93763974     0.08700
C3930       C  0.74882668  0.74715312  0.94132365     0.19600
C3931       C  0.81231033  0.74951523  0.95626180    -0.55200
C3932       C  0.79962973  0.76901407  0.94140424     0.08800
C3933       C  0.75205585  0.73656468  0.97841899    -0.54800
C3934       C  0.73559310  0.75198575  0.96403038     0.09300
H3935       H  0.73957348  0.64612967  0.95180204     0.13800
H3936       H  0.73519958  0.75995849  0.92983383    -0.00400
H3937       H  0.84466995  0.75460074  0.95720607     0.14200
H3938       H  0.75192877  0.74468626  0.99451225     0.13900
C3939       C  0.77040531  0.52544886  0.96665257     0.85700
C3940       C  0.80566103  0.51866417  0.95654978    -0.54500
C3941       C  0.79033331  0.48234790  0.94320230     0.08700
C3942       C  0.73729938  0.94946736  0.94242695     0.19600
C3943       C  0.74442796  0.52688370  0.94807640    -0.55200
C3944       C  0.72988075  0.49100641  0.93448367     0.08800
C3945       C  0.73866415  0.48158412  0.97722616    -0.54800
C3946       C  0.72018695  0.93991000  0.96520059     0.09300
H3947       H  0.83966257  0.54470970  0.95752410     0.13800
H3948       H  0.72320003  0.91796234  0.93309170    -0.00400
H3949       H  0.74104716  0.55534460  0.94527495     0.14200
H3950       H  0.72686276  0.48002396  0.99291491     0.13900
C3951       C  0.94821102  0.70915657  0.96975561     0.85700
C3952       C  0.94934554  0.73707281  0.95113303    -0.54500
C3953       C  0.98200873  0.74592327  0.93695860     0.08700
C3954       C  0.50957718  0.72237393  0.94303262     0.19600
C3955       C  0.94439379  0.66720502  0.95914927    -0.55200
C3956       C  0.97555506  0.67576817  0.94470186     0.08800
C3957       C  0.99440427  0.73562637  0.97891639    -0.54800
C3958       C  0.52580773  0.73936738  0.96555122     0.09300
H3959       H  0.92445541  0.74519237  0.94837026     0.13800
H3960       H  0.53620357  0.72953349  0.93182417    -0.00400
H3961       H  0.91656279  0.63368657  0.96128142     0.14200
H3962       H  0.00102550  0.74950289  0.99468542     0.13900
O3963       O  0.90455414  0.71054653  0.03357154    -0.82600
C3964       C  0.78876005  0.56469956  0.98192886     0.96800
O3965       O  0.82923052  0.58818599  0.98559166    -0.71700
O3966       O  0.90354006  0.65992231  0.99604843    -0.75300
Al3967     Al  0.85610952  0.61695407  0.01166680     1.49000
C3968       C  0.91284394  0.69473548  0.98640128     0.92100
O3969       O  0.82074620  0.71727397  0.99834481    -0.81500
O3970       O  0.76098589  0.65357062  0.02990023    -0.75000
Al3971     Al  0.85808869  0.70699075  0.01599467     1.90100
O3972       O  0.77005917  0.65007802  0.98784362    -0.74100
O3973       O  0.76172120  0.57823993  0.03507650    -0.74000
O3974       O  0.76271480  0.57120314  0.99234416    -0.79600
O3975       O  0.81456880  0.56660652  0.02683368    -0.77800
O3976       O  0.82790539  0.64683250  0.01335234    -1.14000
O3977       O  0.88811452  0.64138825  0.03724237    -0.73100
C3978       C  0.91381323  0.68265677  0.04059296     0.97600
C3979       C  0.78951223  0.69227248  0.98615617     0.94000
Al3980     Al  0.76946254  0.61631416  0.01159363     1.55600
O3981       O  0.89325595  0.71529881  0.99086836    -0.77800
C3982       C  0.77965054  0.55523139  0.03641046     0.98100
C3983       C  0.78337230  0.68808329  0.04096703     0.93000
O3984       O  0.82499520  0.70752912  0.04090348    -0.83100
C3985       C  0.94238800  0.62274193  0.89139271    -0.21100
C3986       C  0.98236959  0.62817742  0.88547199    -0.07600
C3987       C  0.01073781  0.63034778  0.90156290     0.13200
C3988       C  0.00504582  0.64069564  0.92209614    -0.21100
C3989       C  0.96922813  0.64410340  0.92734744    -0.07600
C3990       C  0.93472441  0.62896324  0.91255170     0.13200
C3991       C  0.89021130  0.61926952  0.91874292    -0.24500
H3992       H  0.91856897  0.61669562  0.87945234     0.14500
H3993       H  0.53173857  0.64866031  0.93355340     0.14500
C3994       C  0.55428712  0.63065796  0.89680738    -0.24400
H3995       H  0.86877626  0.61019952  0.90479982     0.04800
H3996       H  0.89128047  0.64786353  0.92691881     0.08000
H3997       H  0.87531790  0.59065589  0.92944881     0.08000
H3998       H  0.58307312  0.66511834  0.89810091     0.08000
H3999       H  0.04874264  0.61308339  0.88142708     0.08000
H4000       H  0.55774694  0.60941842  0.90838477     0.04700
C4001       C  0.70748366  0.65963333  0.88084647    -0.21100
C4002       C  0.75030861  0.67915703  0.87318921    -0.07600
C4003       C  0.78468202  0.69237056  0.88734047     0.13200
C4004       C  0.77650961  0.69118512  0.90883421    -0.21100
C4005       C  0.73533625  0.68127072  0.91618759    -0.07600
C4006       C  0.69981454  0.66204220  0.90230307     0.13200
C4007       C  0.65452982  0.64617259  0.90995697    -0.24500
H4008       H  0.68082895  0.64862571  0.86984075     0.14500
H4009       H  0.80350069  0.70283063  0.91967254     0.14500
C4010       C  0.83026845  0.71107573  0.87952644    -0.24400
H4011       H  0.63065750  0.63078983  0.89692009     0.04800
H4012       H  0.65285415  0.67467616  0.91675064     0.08000
H4013       H  0.64548426  0.62056557  0.92212820     0.08000
H4014       H  0.84094135  0.74191674  0.87055714     0.08000
H4015       H  0.83017841  0.68558523  0.86896002     0.08000
H4016       H  0.85374654  0.71924687  0.89256572     0.04700
C4017       C  0.64496198  0.76325330  0.84900024    -0.21100
C4018       C  0.61312195  0.71756371  0.84717488    -0.07600
C4019       C  0.62512202  0.68585341  0.84288159     0.13200
C4020       C  0.66777546  0.70058999  0.83857707    -0.21100
C4021       C  0.70015181  0.74588875  0.83980561    -0.07600
C4022       C  0.68921313  0.77783467  0.84562337     0.13200
C4023       C  0.72293546  0.82648084  0.84809103    -0.24500
H4024       H  0.63528851  0.78729738  0.85253182     0.14500
H4025       H  0.67599819  0.67551703  0.83486702     0.14500
C4026       C  0.59437882  0.63582139  0.84248067    -0.24400
H4027       H  0.71401002  0.84615910  0.83841528     0.04800
H4028       H  0.75559268  0.83421389  0.84283427     0.08000
H4029       H  0.72438209  0.83698975  0.86474149     0.08000
H4030       H  0.09528620  0.62182205  0.82658096     0.08000
H4031       H  0.06122851  0.62396573  0.84680575     0.08000
H4032       H  0.60522635  0.62042848  0.85414974     0.04700
C4033       C  0.52371781  0.78814427  0.88278996    -0.21100
C4034       C  0.48754023  0.75833714  0.87035614    -0.07600
C4035       C  0.94764440  0.72957387  0.88047985     0.13200
C4036       C  0.94478942  0.73115376  0.90243647    -0.21100
C4037       C  0.98177783  0.75884472  0.91486423    -0.07600
C4038       C  0.52183631  0.78681222  0.90477840     0.13200
C4039       C  0.56259341  0.81852314  0.91696717    -0.24500
H4040       H  0.55418175  0.81171502  0.87529062     0.14500
H4041       H  0.91438684  0.70827339  0.90990082     0.14500
C4042       C  0.91043791  0.69293220  0.86797088    -0.24400
H4043       H  0.57386878  0.85341902  0.91259427     0.04800
H4044       H  0.58864688  0.81136267  0.91315682     0.08000
H4045       H  0.55734197  0.81614755  0.93417105     0.08000
H4046       H  0.92186322  0.67356763  0.85890678     0.08000
H4047       H  0.89809610  0.70760421  0.85674472     0.08000
H4048       H  0.88340370  0.66934742  0.87823943     0.04700
C4049       C  0.74936107  0.52083471  0.87677442    -0.21100
C4050       C  0.72438931  0.97305132  0.86655391    -0.07600
C4051       C  0.69142718  0.93869589  0.87927213     0.13200
C4052       C  0.69072646  0.94605604  0.90095035    -0.21100
C4053       C  0.72060412  0.49233773  0.91171288    -0.07600
C4054       C  0.74797791  0.52876128  0.89846820     0.13200
C4055       C  0.77652758  0.57581544  0.90676265    -0.24500
H4056       H  0.77226676  0.54785821  0.86690522     0.14500
H4057       H  0.66772056  0.91884944  0.91072987     0.14500
C4058       C  0.65634043  0.89375505  0.87065417    -0.24400
H4059       H  0.79641869  0.59925738  0.89418804     0.04800
H4060       H  0.79912992  0.57705904  0.91883650     0.08000
H4061       H  0.75589230  0.58801084  0.91349548     0.08000
H4062       H  0.67038090  0.87357476  0.86528288     0.08000
H4063       H  0.63870257  0.89846588  0.85774874     0.08000
H4064       H  0.63171291  0.87372248  0.88271854     0.04700
C4065       C  0.66122044  0.83146756  0.80558917    -0.21100
C4066       C  0.66974581  0.87419714  0.81129382    -0.07600
C4067       C  0.63479433  0.88128089  0.81447801     0.13200
C4068       C  0.59440732  0.84506801  0.81811537    -0.21100
C4069       C  0.58561123  0.80204582  0.81430552    -0.07600
C4070       C  0.61791975  0.79507331  0.80551546     0.13200
C4071       C  0.60781831  0.75159254  0.79547620    -0.24500
H4072       H  0.68777679  0.82660670  0.80130274     0.14500
H4073       H  0.56908031  0.85050774  0.82394021     0.14500
C4074       C  0.63887722  0.92633751  0.81408362    -0.24400
H4075       H  0.61999353  0.75759625  0.77908905     0.04800
H4076       H  0.57228087  0.72735907  0.79465688     0.08000
H4077       H  0.62421790  0.73715459  0.80410101     0.08000
H4078       H  0.65160610  0.94106326  0.79857126     0.08000
H4079       H  0.65969438  0.94864511  0.82688073     0.08000
H4080       H  0.60684263  0.92372360  0.81587721     0.04700
C4081       C  0.89983782  0.83292576  0.90541163    -0.21100
C4082       C  0.88088718  0.83393448  0.88631488    -0.07600
C4083       C  0.83677086  0.82183550  0.88684191     0.13200
C4084       C  0.81104956  0.80076235  0.90466661    -0.21100
C4085       C  0.82938956  0.79744900  0.92359971    -0.07600
C4086       C  0.87570068  0.81889176  0.92419854     0.13200
C4087       C  0.90168903  0.83250478  0.94429745    -0.24500
H4088       H  0.93464343  0.84615476  0.90611100     0.14500
H4089       H  0.77656269  0.78785585  0.90352181     0.14500
C4090       C  0.81792611  0.83568394  0.86978894    -0.24400
H4091       H  0.92774525  0.86835203  0.94364677     0.04800
H4092       H  0.91726961  0.81249401  0.94630287     0.08000
H4093       H  0.88176381  0.82973347  0.95819980     0.08000
H4094       H  0.81787439  0.81995658  0.85460718     0.08000
H4095       H  0.83775101  0.87250515  0.86823282     0.08000
H4096       H  0.78411900  0.82634228  0.87363370     0.04700
C4097       C  0.79802746  0.46305988  0.90594878    -0.21100
C4098       C  0.81784817  0.48138064  0.92557577    -0.07600
C4099       C  0.86390293  0.50362886  0.92681043     0.13200
C4100       C  0.88816629  0.51539183  0.90826164    -0.21100
C4101       C  0.86793320  0.50089428  0.88851408    -0.07600
C4102       C  0.82255142  0.47105249  0.88764328     0.13200
C4103       C  0.80011575  0.94248773  0.86840456    -0.24500
H4104       H  0.76178676  0.93565292  0.90508644     0.14500
H4105       H  0.92340002  0.53495852  0.90937389     0.14500
C4106       C  0.88857629  0.51325204  0.94716722    -0.24400
H4107       H  0.81529245  0.92416268  0.86191132     0.04800
H4108       H  0.76487049  0.91799737  0.87059479     0.08000
H4109       H  0.80337244  0.96729662  0.85691469     0.08000
H4110       H  0.86665349  0.49757027  0.96074520     0.08000
H4111       H  0.90933254  0.54991024  0.94989390     0.08000
H4112       H  0.90995153  0.49903779  0.94628693     0.04700
C4113       C  0.02207886  0.01195320  0.84267206    -0.21100
C4114       C  0.00118479  0.01644858  0.86048940    -0.07600
C4115       C  0.00848494  0.00143995  0.87983088     0.13200
C4116       C  0.02088184  0.96937919  0.87901394    -0.21100
C4117       C  0.02110721  0.95068177  0.85939336    -0.07600
C4118       C  0.03630011  0.98145188  0.84298369     0.13200
C4119       C  0.06315494  0.97887446  0.82554116    -0.24500
H4120       H  0.02379826  0.02826019  0.82825751     0.14500
H4121       H  0.01933766  0.95201963  0.89319363     0.14500
C4122       C  0.00090204  0.01560402  0.90107566    -0.24400
H4123       H  0.06957675  0.00359407  0.81324832     0.04800
H4124       H  0.04637071  0.94516035  0.81831027     0.08000
H4125       H  0.09487021  0.98600052  0.83195002     0.08000
H4126       H  0.97351438  0.98653398  0.90902775     0.08000
H4127       H  0.99359502  0.04250597  0.90013123     0.08000
H4128       H  0.03084195  0.02871287  0.91076734     0.04700
C4129       C  0.88110168  0.49393737  0.77563237    -0.21100
C4130       C  0.88587045  0.53438936  0.76859776    -0.07600
C4131       C  0.88211832  0.56182408  0.78434432     0.13200
C4132       C  0.88875975  0.55638100  0.80562237    -0.21100
C4133       C  0.89259122  0.52047014  0.81184097    -0.07600
C4134       C  0.88234598  0.48603138  0.79710249     0.13200
C4135       C  0.86925118  0.44006269  0.80430824    -0.24500
H4136       H  0.87550956  0.46775076  0.76456007     0.14500
H4137       H  0.89037654  0.57995791  0.81739892     0.14500
C4138       C  0.86419805  0.59139507  0.78009578    -0.24400
H4139       H  0.86245033  0.41666731  0.79087692     0.04800
H4140       H  0.84552775  0.92969564  0.81649132     0.08000
H4141       H  0.89489215  0.44132119  0.81430554     0.08000
H4142       H  0.84679652  0.58309196  0.76486666     0.08000
H4143       H  0.89026078  0.62706759  0.78111270     0.08000
H4144       H  0.83918560  0.58552329  0.79205622     0.04700
C4145       C  0.99184080  0.60555495  0.77284254    -0.21100
C4146       C  0.98232600  0.63335156  0.76147086    -0.07600
C4147       C  0.97901834  0.66648817  0.77234402     0.13200
C4148       C  0.97710792  0.66584621  0.79446052    -0.21100
C4149       C  0.98667172  0.63829461  0.80605717    -0.07600
C4150       C  0.99625302  0.60930180  0.79466627     0.13200
C4151       C  0.01169028  0.58189076  0.80472273    -0.24500
H4152       H  0.99499211  0.57986448  0.76475237     0.14500
H4153       H  0.96979245  0.68787104  0.80283293     0.14500
C4154       C  0.98203600  0.70439362  0.76027852    -0.24400
H4155       H  0.98909791  0.54612985  0.80055134     0.04800
H4156       H  0.01302339  0.58590012  0.82190034     0.08000
H4157       H  0.04465376  0.59200154  0.79877924     0.08000
H4158       H  0.95460263  0.69241648  0.74913947     0.08000
H4159       H  0.01278667  0.72052742  0.75112675     0.08000
H4160       H  0.98333114  0.73036657  0.77073537     0.04700
C4161       C  0.71215138  0.52646105  0.79435364    -0.21100
C4162       C  0.74281845  0.51319730  0.79205318    -0.07600
C4163       C  0.75229144  0.50415084  0.77146504     0.13200
C4164       C  0.73102414  0.50811037  0.75420570    -0.21100
C4165       C  0.69774660  0.51704726  0.75679134    -0.07600
C4166       C  0.68708682  0.52500794  0.77718402     0.13200
C4167       C  0.64812671  0.52968775  0.78116085    -0.24500
H4168       H  0.70303325  0.53134573  0.80997998     0.14500
H4169       H  0.73979284  0.50308463  0.73850065     0.14500
C4170       C  0.78314314  0.98708009  0.76572025    -0.24400
H4171       H  0.64466738  0.53535393  0.79807520     0.04800
H4172       H  0.61799452  0.49855313  0.77603772     0.08000
H4173       H  0.65076477  0.55806366  0.77260099     0.08000
H4174       H  0.76391317  0.95257768  0.75910539     0.08000
H4175       H  0.79901601  0.48614334  0.78136549     0.08000
H4176       H  0.80757557  0.00841417  0.75387821     0.04700
C4177       C  0.74406501  0.63085413  0.76958733    -0.21100
C4178       C  0.71450363  0.63488645  0.75647301    -0.07600
C4179       C  0.70051822  0.66413083  0.76320090     0.13200
C4180       C  0.71128802  0.68289875  0.78344622    -0.21100
C4181       C  0.73990347  0.67777938  0.79652971    -0.07600
C4182       C  0.75719166  0.65209901  0.78924754     0.13200
C4183       C  0.79040414  0.64788275  0.80174894    -0.24500
H4184       H  0.75633906  0.60958677  0.76533158     0.14500
H4185       H  0.69847199  0.70350853  0.78865002     0.14500
C4186       C  0.67682790  0.67898802  0.74926078    -0.24400
H4187       H  0.80267219  0.62899382  0.79292631     0.04800
H4188       H  0.77559493  0.62979087  0.81646844     0.08000
H4189       H  0.81883375  0.68160225  0.80548396     0.08000
H4190       H  0.64262816  0.66432657  0.75465310     0.08000
H4191       H  0.67754076  0.67036654  0.73251142     0.08000
H4192       H  0.69320826  0.71598081  0.75009835     0.04700
C4193       C  0.96790803  0.82310567  0.76836990    -0.21100
C4194       C  0.93649407  0.78796746  0.75584254    -0.07600
C4195       C  0.91207063  0.74441392  0.76458251     0.13200
C4196       C  0.91995368  0.73795805  0.78539633    -0.21100
C4197       C  0.95298682  0.77307807  0.79723454    -0.07600
C4198       C  0.47217058  0.81547864  0.78903060     0.13200
C4199       C  0.50561956  0.85573303  0.80112115    -0.24500
H4200       H  0.48254685  0.85526886  0.76240757     0.14500
H4201       H  0.90372144  0.70441449  0.79153224     0.14500
C4202       C  0.87950373  0.70332301  0.75224070    -0.24400
H4203       H  0.49749576  0.88190714  0.79970438     0.04800
H4204       H  0.53837563  0.86815906  0.79424192     0.08000
H4205       H  0.50570049  0.84897921  0.81803331     0.08000
H4206       H  0.88105990  0.70950072  0.73523422     0.08000
H4207       H  0.84608153  0.69128658  0.75816980     0.08000
H4208       H  0.88597835  0.67595401  0.75418661     0.04700
C4209       C  0.91700903  0.87953610  0.77114442    -0.21100
C4210       C  0.87992266  0.83874349  0.76468700    -0.07600
C4211       C  0.85385494  0.80952341  0.78059237     0.13200
C4212       C  0.86731352  0.81912731  0.80194076    -0.21100
C4213       C  0.90558355  0.85921627  0.80817926    -0.07600
C4214       C  0.92878153  0.89112647  0.79223820     0.13200
C4215       C  0.96522583  0.93891518  0.79612080    -0.24500
H4216       H  0.93839023  0.90326807  0.75963341     0.14500
H4217       H  0.84782518  0.79482702  0.81370297     0.14500
C4218       C  0.81135309  0.76828271  0.77534736    -0.24400
H4219       H  0.95881883  0.96167486  0.78701792     0.04800
H4220       H  0.99673097  0.94364509  0.79064406     0.08000
H4221       H  0.96780592  0.95045486  0.81249993     0.08000
H4222       H  0.81365397  0.73899201  0.77934506     0.08000
H4223       H  0.80198897  0.76552594  0.75862263     0.08000
H4224       H  0.78535880  0.76929136  0.78425341     0.04700
C4225       C  0.58824810  0.60980481  0.45995343    -0.21100
C4226       C  0.62629126  0.64265532  0.46970446    -0.07600
C4227       C  0.65246580  0.68432000  0.46019994     0.13200
C4228       C  0.64318712  0.69003908  0.43968557    -0.21100
C4229       C  0.60822082  0.65492271  0.42864750    -0.07600
C4230       C  0.57895480  0.61451659  0.43932152     0.13200
C4231       C  0.53796481  0.57555776  0.42978418    -0.24500
H4232       H  0.56858772  0.57796886  0.46762133     0.14500
H4233       H  0.66387802  0.72166668  0.43208990     0.14500
C4234       C  0.69160682  0.72214955  0.47115642    -0.24400
H4235       H  0.51956741  0.54871727  0.44128065     0.04800
H4236       H  0.54564275  0.55986776  0.41656794     0.08000
H4237       H  0.51535564  0.58602599  0.42479171     0.08000
H4238       H  0.72162171  0.73086291  0.46223303     0.08000
H4239       H  0.69522624  0.71359790  0.48739873     0.08000
H4240       H  0.68787150  0.75166940  0.47206986     0.04700
C4241       C  0.78956918  0.84013112  0.46320779    -0.21100
C4242       C  0.82733921  0.84901369  0.47387156    -0.07600
C4243       C  0.86793500  0.87449291  0.46382601     0.13200
C4244       C  0.86985796  0.89123590  0.44361570    -0.21100
C4245       C  0.83168349  0.88047461  0.43238984    -0.07600
C4246       C  0.79087854  0.85332978  0.44237821     0.13200
C4247       C  0.74781101  0.83338558  0.43106766    -0.24500
H4248       H  0.75822061  0.81847424  0.47042534     0.14500
H4249       H  0.90146926  0.91238484  0.43651809     0.14500
C4250       C  0.90899039  0.88225680  0.47419960    -0.24400
H4251       H  0.72898153  0.79667187  0.43320211     0.04800
H4252       H  0.75144114  0.83845784  0.41392537     0.08000
H4253       H  0.72875218  0.84756996  0.43768996     0.08000
H4254       H  0.90589943  0.84988498  0.47777144     0.08000
H4255       H  0.91461889  0.90114279  0.48918927     0.08000
H4256       H  0.93779451  0.90111444  0.46397593     0.04700
C4257       C  0.78565544  0.69026757  0.46715119    -0.21100
C4258       C  0.79208432  0.69911791  0.48903022    -0.07600
C4259       C  0.78158858  0.66265644  0.50232341     0.13200
C4260       C  0.76596569  0.62052872  0.49280495    -0.21100
C4261       C  0.74097786  0.61201201  0.47470695    -0.07600
C4262       C  0.76046119  0.64583676  0.45971959     0.13200
C4263       C  0.74887883  0.63531554  0.43689882    -0.24500
H4264       H  0.79660749  0.71725772  0.45617861     0.14500
H4265       H  0.75787482  0.59247847  0.50269278     0.14500
C4266       C  0.77933107  0.66498896  0.52591912    -0.24400
H4267       H  0.76522806  0.66603985  0.42739369     0.04800
H4268       H  0.71311959  0.61898026  0.43463306     0.08000
H4269       H  0.75945862  0.61235748  0.43106516     0.08000
H4270       H  0.75466377  0.67378366  0.53028342     0.08000
H4271       H  0.81147814  0.68990751  0.53265303     0.08000
H4272       H  0.76880082  0.63236677  0.53318772     0.04700
C4273       C  0.45512480  0.82224483  0.44807523    -0.21100
C4274       C  0.47659703  0.80463596  0.45869684    -0.07600
C4275       C  0.50946539  0.80110791  0.44828593     0.13200
C4276       C  0.52257392  0.81896381  0.42820012    -0.21100
C4277       C  0.50476186  0.84161797  0.41823772    -0.07600
C4278       C  0.46792441  0.84011378  0.42789881     0.13200
C4279       C  0.93790327  0.85002651  0.41511841    -0.24500
H4280       H  0.92201847  0.81328587  0.45261713     0.14500
H4281       H  0.54814793  0.81619509  0.42054818     0.14500
C4282       C  0.53139531  0.77869418  0.45784807    -0.24400
H4283       H  0.90868833  0.84256234  0.42444868     0.04800
H4284       H  0.92561891  0.83060486  0.40020659     0.08000
H4285       H  0.95568912  0.88632331  0.41223983     0.08000
H4286       H  0.52579632  0.75023063  0.44759640     0.08000
H4287       H  0.51912587  0.76568810  0.47372923     0.08000
H4288       H  0.56702557  0.80292197  0.45909546     0.04700
C4289       C  0.94726036  0.62272947  0.44827187    -0.21100
C4290       C  0.47451914  0.62916659  0.46687548    -0.07600
C4291       C  0.51994160  0.65934950  0.46512819     0.13200
C4292       C  0.53763891  0.67652597  0.44545021    -0.21100
C4293       C  0.51215490  0.66247993  0.42704416    -0.07600
C4294       C  0.46640632  0.63727141  0.42919835     0.13200
C4295       C  0.93537422  0.63314904  0.41091423    -0.24500
H4296       H  0.91203353  0.60218957  0.44903289     0.14500
H4297       H  0.57229690  0.69927961  0.44462580     0.14500
C4298       C  0.55069471  0.67337678  0.48354505    -0.24400
H4299       H  0.91349795  0.64540229  0.41566478     0.04800
H4300       H  0.91509121  0.59694219  0.40695371     0.08000
H4301       H  0.45296558  0.64847835  0.39725297     0.08000
H4302       H  0.54837525  0.64358589  0.49072149     0.08000
H4303       H  0.54292286  0.69200200  0.49528060     0.08000
H4304       H  0.58510443  0.69570536  0.47880626     0.04700
C4305       C  0.33775588  0.59526050  0.48375190    -0.21100
C4306       C  0.34292553  0.58164814  0.50362163    -0.07600
C4307       C  0.83486580  0.60371157  0.51913187     0.13200
C4308       C  0.85686955  0.65021982  0.51702556    -0.21100
C4309       C  0.37520666  0.67101385  0.49806479    -0.07600
C4310       C  0.36035778  0.64167159  0.48017809     0.13200
C4311       C  0.36995885  0.65768557  0.45792299    -0.24500
H4312       H  0.32962271  0.57273495  0.47046569     0.14500
H4313       H  0.86241209  0.67106306  0.53077525     0.14500
C4314       C  0.81384641  0.58164433  0.53938880    -0.24400
H4315       H  0.35830939  0.68091456  0.45508173     0.04800
H4316       H  0.40551507  0.67466330  0.45490066     0.08000
H4317       H  0.35345281  0.62948448  0.44643122     0.08000
H4318       H  0.82921662  0.56369822  0.54562413     0.08000
H4319       H  0.77866638  0.55761816  0.53662189     0.08000
H4320       H  0.81674544  0.60646714  0.55138977     0.04700
C4321       C  0.81755734  0.99282223  0.45915649    -0.21100
C4322       C  0.84819596  0.98768838  0.47035795    -0.07600
C4323       C  0.88642735  0.99536152  0.46026025     0.13200
C4324       C  0.88917436  0.99979759  0.43836299    -0.21100
C4325       C  0.85421134  0.99634862  0.42671477    -0.07600
C4326       C  0.82074821  0.99816311  0.43742115     0.13200
C4327       C  0.78689479  0.00265639  0.42573532    -0.24500
H4328       H  0.78508904  0.48688361  0.46643444     0.14500
H4329       H  0.91579563  0.99977467  0.43023271     0.14500
C4330       C  0.92202862  0.99448771  0.47216277    -0.24400
H4331       H  0.75858314  0.50120360  0.43587329     0.04800
H4332       H  0.76846083  0.97424476  0.41458817     0.08000
H4333       H  0.79902071  0.53421327  0.41665449     0.08000
H4334       H  0.90842929  0.96261654  0.48053851     0.08000
H4335       H  0.93658912  0.02228085  0.48387988     0.08000
H4336       H  0.94834686  0.99798665  0.46160396     0.04700
C4337       C  0.56027102  0.93353935  0.47195576    -0.21100
C4338       C  0.59019267  0.92224562  0.47902211    -0.07600
C4339       C  0.62657991  0.93261404  0.46601125     0.13200
C4340       C  0.62815574  0.94676616  0.44542913    -0.21100
C4341       C  0.59496892  0.95176874  0.43724608    -0.07600
C4342       C  0.56299326  0.94942900  0.45138861     0.13200
C4343       C  0.52965800  0.46161561  0.44346237    -0.24500
H4344       H  0.53341489  0.42972072  0.48123325     0.14500
H4345       H  0.65391417  0.95057223  0.43504231     0.14500
C4346       C  0.66434477  0.92909037  0.47351018    -0.24400
H4347       H  0.50744333  0.45853546  0.45636822     0.04800
H4348       H  0.50995563  0.43945251  0.43034963     0.08000
H4349       H  0.54694243  0.49682261  0.43840750     0.08000
H4350       H  0.65441156  0.89378660  0.47579067     0.08000
H4351       H  0.67692139  0.94864185  0.48829625     0.08000
H4352       H  0.69164520  0.94306216  0.46208799     0.04700
C4353       C  0.66976969  0.39998902  0.52314685    -0.21100
C4354       C  0.63937999  0.85441866  0.51706830    -0.07600
C4355       C  0.65380971  0.82635462  0.50934182     0.13200
C4356       C  0.69911188  0.84391321  0.50739301    -0.21100
C4357       C  0.72893025  0.88914101  0.51234866    -0.07600
C4358       C  0.71363982  0.41784138  0.52012960     0.13200
C4359       C  0.74236856  0.46769160  0.52420281    -0.24500
H4360       H  0.65975959  0.42271711  0.52860428     0.14500
H4361       H  0.71110476  0.82293291  0.50165545     0.14500
C4362       C  0.62175681  0.77869439  0.50333519    -0.24400
H4363       H  0.73093792  0.48569164  0.51457571     0.04800
H4364       H  0.77701170  0.48207742  0.52017741     0.08000
H4365       H  0.73980576  0.47526639  0.54095364     0.08000
H4366       H  0.60052648  0.77741787  0.49042453     0.08000
H4367       H  0.60128147  0.76095142  0.51710065     0.08000
H4368       H  0.63862415  0.76117650  0.49801865     0.04700
C4369       C  0.67362604  0.55807749  0.56423696    -0.21100
C4370       C  0.66781720  0.58580138  0.57837525    -0.07600
C4371       C  0.66062017  0.61853815  0.57001156     0.13200
C4372       C  0.65324734  0.61797534  0.54822930    -0.21100
C4373       C  0.65468096  0.58651409  0.53459485    -0.07600
C4374       C  0.66498377  0.55603768  0.54299515     0.13200
C4375       C  0.66711377  0.52054106  0.52997914    -0.24500
H4376       H  0.68335908  0.53562356  0.56957075     0.14500
H4377       H  0.64888545  0.64381168  0.54177807     0.14500
C4378       C  0.66592229  0.65734516  0.58304605    -0.24400
H4379       H  0.66620195  0.49437771  0.53987670     0.04800
H4380       H  0.69814935  0.53535799  0.52119491     0.08000
H4381       H  0.63905639  0.50384152  0.51899787     0.08000
H4382       H  0.67400527  0.65598174  0.59965129     0.08000
H4383       H  0.63588824  0.65871961  0.58238463     0.08000
H4384       H  0.69309311  0.68888573  0.57657846     0.04700
C4385       C  0.59581810  0.96999093  0.58288824    -0.21100
C4386       C  0.63060479  0.47247730  0.59313786    -0.07600
C4387       C  0.64091191  0.44050719  0.58670616     0.13200
C4388       C  0.62008077  0.41346018  0.56894508    -0.21100
C4389       C  0.59050010  0.91548796  0.55697622    -0.07600
C4390       C  0.57897476  0.94661094  0.56375294     0.13200
C4391       C  0.55081584  0.95724009  0.55069870    -0.24500
H4392       H  0.58616840  0.99321387  0.58808238     0.14500
H4393       H  0.62906721  0.38934922  0.56441223     0.14500
C4394       C  0.67384606  0.43413580  0.59808788    -0.24400
H4395       H  0.54388212  0.98115414  0.55889666     0.04800
H4396       H  0.51939109  0.92655436  0.54719170     0.08000
H4397       H  0.56746652  0.97272403  0.53579895     0.08000
H4398       H  0.68915349  0.45765765  0.61157587     0.08000
H4399       H  0.70002624  0.43924492  0.58703132     0.08000
H4400       H  0.65769916  0.39955386  0.60404504     0.04700
C4401       C  0.97191125  0.65741944  0.57927505    -0.21100
C4402       C  0.98919337  0.63266777  0.58685770    -0.07600
C4403       C  0.00837426  0.61674659  0.57216196     0.13200
C4404       C  0.99884541  0.61555852  0.55069220    -0.21100
C4405       C  0.97026884  0.62888616  0.54412782    -0.07600
C4406       C  0.96011651  0.65378085  0.55821499     0.13200
C4407       C  0.93238405  0.67200360  0.55187415    -0.24500
H4408       H  0.96036043  0.67284303  0.59035886     0.14500
H4409       H  0.00992768  0.60001797  0.53943978     0.14500
C4410       C  0.03667335  0.59890644  0.57865452    -0.24400
H4411       H  0.93357187  0.69646643  0.56358079     0.04800
H4412       H  0.89827266  0.64404232  0.55105181     0.08000
H4413       H  0.94327840  0.68846733  0.53649388     0.08000
H4414       H  0.01787369  0.56732050  0.58729244     0.08000
H4415       H  0.56499006  0.62339021  0.58972675     0.08000
H4416       H  0.05158583  0.59196746  0.56489365     0.04700
C4417       C  0.91458592  0.02044745  0.57378079    -0.21100
C4418       C  0.88552695  0.52043381  0.58772504    -0.07600
C4419       C  0.84234130  0.50434611  0.58181742     0.13200
C4420       C  0.82881320  0.48613032  0.56165256    -0.21100
C4421       C  0.85804080  0.48571813  0.54682991    -0.07600
C4422       C  0.90176014  0.00406718  0.55324019     0.13200
C4423       C  0.93448472  0.00436918  0.53815613    -0.24500
H4424       H  0.94725866  0.03134582  0.57878754     0.14500
H4425       H  0.79496994  0.47198043  0.55751452     0.14500
C4426       C  0.81041058  0.50532912  0.59696446    -0.24400
H4427       H  0.96664904  0.01709189  0.54578251     0.04800
H4428       H  0.93914953  0.02612332  0.52476193     0.08000
H4429       H  0.92311113  0.97030737  0.53198836     0.08000
H4430       H  0.82209837  0.54031219  0.60197396     0.08000
H4431       H  0.80714014  0.48545749  0.61097291     0.08000
H4432       H  0.77769633  0.49124911  0.58975534     0.04700
C4433       C  0.86737731  0.84905125  0.57945187    -0.21100
C4434       C  0.85869402  0.81108918  0.59075129    -0.07600
C4435       C  0.82800174  0.76868118  0.58224696     0.13200
C4436       C  0.81375601  0.76521592  0.56148396    -0.21100
C4437       C  0.82823649  0.80298344  0.54880156    -0.07600
C4438       C  0.85179572  0.84538759  0.55881409     0.13200
C4439       C  0.86014554  0.88673676  0.54818895    -0.24500
H4440       H  0.88910657  0.88205959  0.58605825     0.14500
H4441       H  0.79159007  0.73221730  0.55512754     0.14500
C4442       C  0.80937428  0.72639269  0.59460864    -0.24400
H4443       H  0.88017043  0.89290186  0.53395265     0.04800
H4444       H  0.87724731  0.91637601  0.55878944     0.08000
H4445       H  0.82831470  0.88225617  0.54389067     0.08000
H4446       H  0.82018142  0.73306230  0.61119651     0.08000
H4447       H  0.81903775  0.70377155  0.58729921     0.08000
H4448       H  0.77322224  0.70910496  0.59462186     0.04700
C4449       C  0.95944252  0.84573756  0.56452709    -0.21100
C4450       C  0.96984706  0.82353549  0.57937026    -0.07600
C4451       C  0.49008628  0.79861794  0.57285274     0.13200
C4452       C  0.49025392  0.79022250  0.55119097    -0.21100
C4453       C  0.97078501  0.80595460  0.53595589    -0.07600
C4454       C  0.95937679  0.83694217  0.54287916     0.13200
C4455       C  0.94494194  0.85880589  0.52749913    -0.24500
H4456       H  0.94906450  0.86821375  0.56994647     0.14500
H4457       H  0.50126866  0.76831911  0.54562382     0.14500
C4458       C  0.50691790  0.77885100  0.58812729    -0.24400
H4459       H  0.93833279  0.88303608  0.53548870     0.04800
H4460       H  0.91488533  0.83314575  0.51923725     0.08000
H4461       H  0.97109943  0.87735172  0.51581376     0.08000
H4462       H  0.53379334  0.80607965  0.59757201     0.08000
H4463       H  0.51982140  0.75983898  0.57993776     0.08000
H4464       H  0.48030403  0.75592617  0.59877604     0.04700
C4465       C  0.91682311  0.75155697  0.17065736    -0.21100
C4466       C  0.94034980  0.76085127  0.18906864    -0.07600
C4467       C  0.91513536  0.73457934  0.20591310     0.13200
C4468       C  0.88599243  0.68891278  0.20163115    -0.21100
C4469       C  0.87806010  0.67290813  0.18055100    -0.07600
C4470       C  0.89150327  0.70625402  0.16471239     0.13200
C4471       C  0.88520054  0.69744042  0.14176723    -0.24500
H4472       H  0.92965301  0.77677427  0.15878480     0.14500
H4473       H  0.87182269  0.66625172  0.21460329     0.14500
C4474       C  0.92403314  0.75305649  0.22797754    -0.24400
H4475       H  0.91585611  0.70317659  0.13449929     0.04800
H4476       H  0.87642285  0.72018599  0.13445282     0.08000
H4477       H  0.85809182  0.66390492  0.13895056     0.08000
H4478       H  0.95872818  0.76718542  0.23225725     0.08000
H4479       H  0.90356101  0.72685468  0.23943311     0.08000
H4480       H  0.91629772  0.77983839  0.22924323     0.04700
C4481       C  0.58881825  0.72058674  0.24075388    -0.21100
C4482       C  0.55833230  0.69983403  0.25704511    -0.07600
C4483       C  0.51579139  0.69170567  0.25460759     0.13200
C4484       C  0.50393802  0.70035582  0.23529048    -0.21100
C4485       C  0.53409815  0.71879162  0.21878402    -0.07600
C4486       C  0.57720468  0.72971045  0.22157544     0.13200
C4487       C  0.61123954  0.75189827  0.20468623    -0.24500
H4488       H  0.62206907  0.72944496  0.24261810     0.14500
H4489       H  0.97364647  0.69889222  0.23397143     0.14500
C4490       C  0.48305177  0.67670306  0.27218060    -0.24400
H4491       H  0.64414519  0.76099478  0.21021674     0.04800
H4492       H  0.61315656  0.78306471  0.19976080     0.08000
H4493       H  0.60284429  0.72894545  0.19092601     0.08000
H4494       H  0.49687623  0.67608383  0.28755331     0.08000
H4495       H  0.45475310  0.64294059  0.26841992     0.08000
H4496       H  0.97476209  0.70855240  0.27475693     0.04700
C4497       C  0.85048694  0.00389512  0.21489291    -0.21100
C4498       C  0.82536484  0.02333089  0.21226088    -0.07600
C4499       C  0.79907236  0.02204728  0.22931934     0.13200
C4500       C  0.79795419  0.00058826  0.24815835    -0.21100
C4501       C  0.82470805  0.98278732  0.25109612    -0.07600
C4502       C  0.85185523  0.98525552  0.23406670     0.13200
C4503       C  0.88425105  0.97038124  0.23537403    -0.24500
H4504       H  0.87111974  0.00549565  0.20208643     0.14500
H4505       H  0.77776675  0.99978290  0.26106322     0.14500
C4506       C  0.77643231  0.54728881  0.22606215    -0.24400
H4507       H  0.87852378  0.94668646  0.22235338     0.04800
H4508       H  0.91764750  0.00007356  0.23430157     0.08000
H4509       H  0.88280273  0.95316767  0.24974885     0.08000
H4510       H  0.75594797  0.53318266  0.21184562     0.08000
H4511       H  0.79777991  0.58400887  0.22464920     0.08000
H4512       H  0.75478697  0.54071465  0.23978902     0.04700
C4513       C  0.83660606  0.84755382  0.22218433    -0.21100
C4514       C  0.81812751  0.86296688  0.20787104    -0.07600
C4515       C  0.78631086  0.87222007  0.21478733     0.13200
C4516       C  0.77920031  0.87329033  0.23636652    -0.21100
C4517       C  0.80383108  0.86600192  0.25121576    -0.07600
C4518       C  0.82741704  0.84618737  0.24372399     0.13200
C4519       C  0.84189177  0.82229721  0.25783204    -0.24500
H4520       H  0.85887618  0.83743242  0.21661743     0.14500
H4521       H  0.75734232  0.88420282  0.24117387     0.14500
C4522       C  0.76257562  0.88469229  0.19954482    -0.24400
H4523       H  0.82937549  0.78787796  0.25164609     0.04800
H4524       H  0.82930929  0.81943696  0.27403041     0.08000
H4525       H  0.87776992  0.84008078  0.25848942     0.08000
H4526       H  0.74400600  0.85673475  0.18814518     0.08000
H4527       H  0.78630180  0.91507284  0.19093340     0.08000
H4528       H  0.73917611  0.89174009  0.20761510     0.04700
C4529       C  0.56040394  0.85500935  0.23450805    -0.21100
C4530       C  0.53327951  0.86153644  0.24836520    -0.07600
C4531       C  0.49862332  0.86437391  0.23979809     0.13200
C4532       C  0.49520263  0.86611627  0.21794218    -0.21100
C4533       C  0.52535613  0.86488398  0.20427893    -0.07600
C4534       C  0.55760216  0.85787770  0.21257010     0.13200
C4535       C  0.59100110  0.85696334  0.19847842    -0.24500
H4536       H  0.58608377  0.85120156  0.24081848     0.14500
H4537       H  0.46972350  0.87031203  0.21144581     0.14500
C4538       C  0.46452284  0.86482210  0.25352966    -0.24400
H4539       H  0.61517477  0.85326028  0.20757566     0.04800
H4540       H  0.60894381  0.88862516  0.18971732     0.08000
H4541       H  0.57462393  0.82855956  0.18712473     0.08000
H4542       H  0.47856904  0.89376552  0.26452523     0.08000
H4543       H  0.94840356  0.83525175  0.26155571     0.08000
H4544       H  0.94154780  0.86894620  0.24274799     0.04700
C4545       C  0.00830818  0.98533790  0.17541790    -0.21100
C4546       C  0.01801108  0.97017855  0.15688885    -0.07600
C4547       C  0.99666403  0.97046044  0.13842080     0.13200
C4548       C  0.95523181  0.96490799  0.14040179    -0.21100
C4549       C  0.93768005  0.96221645  0.16053767    -0.07600
C4550       C  0.96760586  0.98133394  0.17740737     0.13200
C4551       C  0.95674903  0.99502069  0.19772521    -0.24500
H4552       H  0.02824605  0.99228117  0.18931197     0.14500
H4553       H  0.93489819  0.95644487  0.12654722     0.14500
C4554       C  0.51780560  0.96920194  0.11667201    -0.24400
H4555       H  0.98238080  0.02997287  0.20178299     0.04800
H4556       H  0.95483700  0.97262174  0.21032411     0.08000
H4557       H  0.92574593  0.99419037  0.19630065     0.08000
H4558       H  0.49552123  0.93757008  0.10803125     0.08000
H4559       H  0.55031752  0.97276655  0.11816756     0.08000
H4560       H  0.52192121  0.99778654  0.10751647     0.04700
C4561       C  0.62469658  0.99996045  0.24723837    -0.21100
C4562       C  0.63456815  0.96982891  0.25607609    -0.07600
C4563       C  0.65665203  0.95348382  0.24350290     0.13200
C4564       C  0.66481665  0.96526357  0.22234831    -0.21100
C4565       C  0.65468373  0.99511495  0.21373958    -0.07600
C4566       C  0.63468573  0.01301558  0.22633800     0.13200
C4567       C  0.62251064  0.04514130  0.21809382    -0.24500
H4568       H  0.60792578  0.01262755  0.25660272     0.14500
H4569       H  0.68184978  0.95329267  0.21271060     0.14500
C4570       C  0.67331409  0.92488741  0.25178779    -0.24400
H4571       H  0.58702511  0.03113665  0.22032928     0.04800
H4572       H  0.62943880  0.05163968  0.20113928     0.08000
H4573       H  0.64083244  0.07739891  0.22688691     0.08000
H4574       H  0.64702815  0.89428310  0.25914850     0.08000
H4575       H  0.69979102  0.94448342  0.26330801     0.08000
H4576       H  0.68748853  0.91400447  0.23916499     0.04700
C4577       C  0.70765478  0.73754266  0.23047996    -0.21100
C4578       C  0.68288578  0.70844939  0.21387134    -0.07600
C4579       C  0.64482531  0.66716815  0.21847418     0.13200
C4580       C  0.63282090  0.65626577  0.23948765    -0.21100
C4581       C  0.65724643  0.68592221  0.25598793    -0.07600
C4582       C  0.69528314  0.72680836  0.25139975     0.13200
C4583       C  0.72316903  0.75984481  0.26829788    -0.24500
H4584       H  0.73743684  0.76876158  0.22710391     0.14500
H4585       H  0.60258937  0.62561471  0.24297693     0.14500
C4586       C  0.61676267  0.63429457  0.20151434    -0.24400
H4587       H  0.72424159  0.79179004  0.26621281     0.04800
H4588       H  0.75641214  0.76559470  0.26715891     0.08000
H4589       H  0.71137583  0.74791301  0.28435999     0.08000
H4590       H  0.63624723  0.62395625  0.19204280     0.11600
H4591       H  0.60355380  0.64977880  0.19125246     0.08000
H4592       H  0.58854841  0.60370782  0.20810404     0.04700
C4593       C  0.77826177  0.64863775  0.19407706    -0.21100
C4594       C  0.76517482  0.62503083  0.17479576    -0.07600
C4595       C  0.78132106  0.64963150  0.15601942     0.13200
C4596       C  0.80166978  0.69638465  0.15725581    -0.21100
C4597       C  0.79849248  0.71639544  0.17591986    -0.07600
C4598       C  0.79772734  0.69513576  0.19465155     0.13200
C4599       C  0.80843354  0.71920449  0.21554323    -0.24500
H4600       H  0.77064287  0.63092457  0.20872111     0.14500
H4601       H  0.80869617  0.71477232  0.14282467     0.14500
C4602       C  0.77524686  0.62773065  0.13465872    -0.24400
H4603       H  0.83188856  0.71371067  0.22414675     0.04800
H4604       H  0.77840555  0.70620246  0.22513615     0.08000
H4605       H  0.82316606  0.75565169  0.21350925     0.08000
H4606       H  0.74037312  0.60795908  0.13037132     0.08000
H4607       H  0.78831663  0.60514290  0.13464284     0.08000
H4608       H  0.79245685  0.65280647  0.12226839     0.04700
C4609       C  0.83745190  0.54496719  0.09418992    -0.21100
C4610       C  0.80544405  0.99466322  0.09354568    -0.07600
C4611       C  0.80252167  0.96957576  0.11125591     0.13200
C4612       C  0.81615954  0.99112878  0.13117049    -0.21100
C4613       C  0.83547225  0.03777727  0.13366895    -0.07600
C4614       C  0.85241837  0.56713094  0.11364822     0.13200
C4615       C  0.87622750  0.61689603  0.11268276    -0.24500
H4616       H  0.84202376  0.56442247  0.08030591     0.14500
H4617       H  0.81039411  0.97103738  0.14489604     0.14500
C4618       C  0.78618198  0.92070605  0.10939336    -0.24400
H4619       H  0.89505956  0.62891841  0.09796696     0.04800
H4620       H  0.90028535  0.63273810  0.12551668     0.08000
H4621       H  0.85185733  0.62704348  0.11164336     0.08000
H4622       H  0.80774622  0.91539693  0.09872647     0.08000
H4623       H  0.75258432  0.90182598  0.10323485     0.08000
H4624       H  0.78656259  0.90731158  0.12491206     0.04700
C4625       C  0.69486805  0.94584843  0.11172889    -0.21100
C4626       C  0.68296842  0.96329233  0.09519442    -0.07600
C4627       C  0.66302398  0.98800813  0.09973236     0.13200
C4628       C  0.65927738  0.99838509  0.12077185    -0.21100
C4629       C  0.67443687  0.98370307  0.13723262    -0.07600
C4630       C  0.69099725  0.95582204  0.13272629     0.13200
C4631       C  0.70677664  0.93872819  0.14995092    -0.24500
H4632       H  0.70855397  0.92559011  0.10810745     0.14500
H4633       H  0.64668486  0.01997462  0.12435887     0.14500
C4634       C  0.64672547  0.00396715  0.08230944    -0.24400
H4635       H  0.71890065  0.91737781  0.14363577     0.04800
H4636       H  0.67955617  0.91845014  0.16088606     0.08000
H4637       H  0.73381846  0.96722015  0.15875692     0.08000
H4638       H  0.62348721  0.97499343  0.07234312     0.08000
H4639       H  0.68027779  0.52816906  0.07134148     0.08000
H4640       H  0.62917362  0.02017545  0.08845316     0.04700
C4641       C  0.54082968  0.82458021  0.09568478    -0.21100
C4642       C  0.49980887  0.79193565  0.08779750    -0.07600
C4643       C  0.46213269  0.78314051  0.09909937     0.13200
C4644       C  0.46695104  0.80358454  0.11893775    -0.21100
C4645       C  0.50828957  0.83429658  0.12717292    -0.07600
C4646       C  0.54513048  0.84644847  0.11483190     0.13200
C4647       C  0.58906178  0.88423794  0.12137941    -0.24500
H4648       H  0.57012971  0.83258118  0.08715101     0.14500
H4649       H  0.94376473  0.80528332  0.12690899     0.14500
C4650       C  0.92080836  0.76166173  0.08982656    -0.24400
H4651       H  0.61411519  0.88658141  0.11045400     0.04800
H4652       H  0.59758083  0.87971663  0.13743844     0.08000
H4653       H  0.58871154  0.91563880  0.12107393     0.08000
H4654       H  0.90131340  0.73143725  0.09933274     0.08000
H4655       H  0.92051512  0.75113227  0.07330169     0.08000
H4656       H  0.90491602  0.78168287  0.09009911     0.04700
C4657       C  0.99534611  0.67816487  0.13352305    -0.21100
C4658       C  0.51828089  0.71552369  0.14211401    -0.07600
C4659       C  0.55161043  0.74882230  0.12988022     0.13200
C4660       C  0.55167224  0.74173894  0.10816460    -0.21100
C4661       C  0.51972591  0.70137905  0.09867128    -0.07600
C4662       C  0.99640461  0.67072393  0.11175840     0.13200
C4663       C  0.97110677  0.62421481  0.10247438    -0.24500
H4664       H  0.97184189  0.65142652  0.14333904     0.14500
H4665       H  0.57497990  0.76875569  0.09844352     0.14500
C4666       C  0.58634814  0.79197694  0.13986793    -0.24400
H4667       H  0.94999573  0.59942596  0.11433745     0.04800
H4668       H  0.99442256  0.61477472  0.09648016     0.08000
H4669       H  0.95085231  0.62254452  0.08906600     0.08000
H4670       H  0.60452779  0.78496886  0.15166631     0.08000
H4671       H  0.57100904  0.80859392  0.14799724     0.08000
H4672       H  0.61001299  0.81492790  0.12812121     0.04700
C4673       C  0.81753329  0.79706030  0.10016799    -0.21100
C4674       C  0.77947517  0.79303463  0.09215395    -0.07600
C4675       C  0.75581880  0.80741601  0.10458084     0.13200
C4676       C  0.77015892  0.82355276  0.12501296    -0.21100
C4677       C  0.81004188  0.83092899  0.13217919    -0.07600
C4678       C  0.83364819  0.81673406  0.11986382     0.13200
C4679       C  0.87537130  0.82088070  0.12724639    -0.24500
H4680       H  0.83493251  0.78495202  0.09092530     0.14500
H4681       H  0.75212327  0.83410253  0.13476754     0.14500
C4682       C  0.71714889  0.80861700  0.09631182    -0.24400
H4683       H  0.87132166  0.78725803  0.12687005     0.04800
H4684       H  0.88440516  0.83411441  0.14353428     0.08000
H4685       H  0.90245518  0.84322081  0.11665340     0.08000
H4686       H  0.69309934  0.77652396  0.08897119     0.08000
H4687       H  0.72810204  0.83477474  0.08432205     0.08000
H4688       H  0.70045620  0.81652587  0.10888095     0.04700
C4689       C  0.65265899  0.69420859  0.10293761    -0.21100
C4690       C  0.67455447  0.67500977  0.09304138    -0.07600
C4691       C  0.68670281  0.65034282  0.10525190     0.13200
C4692       C  0.68719688  0.65508348  0.12710548    -0.21100
C4693       C  0.67686652  0.68491972  0.13671617    -0.07600
C4694       C  0.65581264  0.70157585  0.12481620     0.13200
C4695       C  0.64082233  0.73049354  0.13481036    -0.24500
H4696       H  0.63832536  0.70873621  0.09355898     0.14500
H4697       H  0.70031459  0.63952906  0.13659252     0.14500
C4698       C  0.70212667  0.62171768  0.09529951    -0.24400
H4699       H  0.62676312  0.74226507  0.12297113     0.04800
H4700       H  0.66876220  0.76033948  0.14242485     0.08000
H4701       H  0.61557573  0.71121365  0.14677927     0.08000
H4702       H  0.69542544  0.61696439  0.07816929     0.08000
H4703       H  0.68496565  0.58848155  0.10257077     0.08000
H4704       H  0.73764372  0.63724630  0.09769442     0.04700
loop_ 
_geom_bond_atom_site_label_1 
_geom_bond_atom_site_label_2 
_geom_bond_distance 
_geom_bond_site_symmetry_2 
_ccdc_geom_bond_type 
C1            C2   1.531       .  S
C1            C7   1.528       .  S
C1            C5   1.539       .  S
C1           C53   1.521       .  S
C2            H9   1.086       .  S
C2            C3   1.371       .  D
C3            C4   1.568       .  S
C3         C1162   1.493       .  S
C4            C8   1.550       .  S
C4            C6   1.533       .  S
C4           H10   1.108       .  S
C5           H11   1.084       .  S
C5            C6   1.363       .  D
C6         C1146   1.483       .  S
C7           H12   1.073       .  S
C7            C8   1.363       .  D
C8          C455   1.507       .  S
C13          C14   1.547       .  S
C13          C19   1.539   1_455  S
C13          C17   1.529       .  S
C13          C38   1.531       .  S
C14          H21   1.086       .  S
C14          C15   1.372   1_455  D
C15          C16   1.532       .  S
C15        C1114   1.490   1_655  S
C16          C18   1.556   1_655  S
C16        C2372   1.545       .  S
C16        H2374   1.109       .  S
C17          H23   1.087       .  S
C17          C18   1.366       .  D
C18        C1133   1.486       .  S
C19          H24   1.078       .  S
C19        C2372   1.369       .  D
C20        C2368   1.542       .  S
C20        C2371   1.370       .  D
C20         C450   1.506       .  S
H22        C2368   1.108       .  S
C25          C26   1.558       .  S
C25          C31   1.524       .  S
C25          C29   1.548       .  S
C25          C42   1.538       .  S
C26          H33   1.084       .  S
C26          C27   1.390       .  D
C27        C1204   1.553       .  S
C27        C1082   1.504       .  S
C28          C32   1.528       .  S
C28        C1203   1.554   1_545  S
C28        C1206   1.526   1_545  S
C28          H34   1.111       .  S
C29          H35   1.086       .  S
C29          C30   1.369       .  D
C30        C1204   1.527       .  S
C30        C1098   1.482       .  S
C31          H36   1.074       .  S
C31        C1208   1.353       .  D
C32        C1207   1.355   1_545  D
C32         C454   1.487       .  S
O37          C52   1.268       .  A
O37         Al45   1.938   1_556  S
C38          O48   1.267       .  A
C38          O39   1.266       .  A
O39         Al41   1.906       .  S
O40          C42   1.265       .  A
O40         Al41   1.918       .  S
Al41         O49   1.907   1_554  S
Al41         O51   1.926   1_554  S
Al41         O50   1.792   1_554  S
C42          O55   1.265       .  A
O43          C53   1.263       .  A
O43         Al45   1.916       .  S
O44          C57   1.273       .  A
O44         Al54   1.962       .  S
Al45         O58   1.941   1_554  S
Al45         O55   1.960       .  S
Al45         O50   1.804   1_554  S
O46          C53   1.266       .  A
O46         Al54   1.928   1_554  S
O47          C56   1.274       .  A
O47         Al54   1.961       .  S
O48         Al54   1.950   1_554  S
O49          C56   1.261       .  A
O50         Al54   1.800       .  S
O51          C52   1.265       .  A
C52         C418   1.492       .  S
C56         C430   1.502       .  S
C57         C406   1.516       .  S
C57          O58   1.267       .  A
C59          N60   1.368       .  A
C59          N64   1.353       .  A
C59        C1050   1.477       .  S
N60          C61   1.362       .  A
C61          N62   1.350       .  A
C61        C1165   1.477       .  S
N62          C63   1.351       .  A
C63          N64   1.349       .  A
C63        C1069   1.488       .  S
C65          N66   1.355       .  A
C65          N70   1.365       .  A
C65        C1037   1.467       .  S
N66          C67   1.351       .  A
C67          N68   1.348       .  A
C67        C2242   1.481       .  S
N68          C69   1.349       .  A
C69          N70   1.362       .  A
C69        C1101   1.468       .  S
C71          N72   1.367       .  A
C71          N76   1.357       .  A
C71        C1005   1.487       .  S
N72          C73   1.368       .  A
C73          N74   1.351       .  A
C73        C1117   1.475       .  S
N74          C75   1.352       .  A
C75          N76   1.357       .  A
C75        C3370   1.483       .  S
C77          N78   1.358       .  A
C77          N82   1.363       .  A
C77         C986   1.470       .  S
N78          C79   1.357       .  A
C79          N80   1.354       .  A
C79        C1149   1.465       .  S
N80          C81   1.355       .  A
C81          N82   1.360       .  A
C81        C1021   1.494       .  S
C83          C84   1.537       .  S
C83          C89   1.516       .  S
C83          C87   1.540       .  S
C83         C302   1.534       .  S
C84          H91   1.081       .  S
C84          C85   1.385       .  D
C85          C86   1.551       .  S
C85         C989   1.514       .  S
C86          C90   1.558       .  S
C86          C88   1.564       .  S
C86          H92   1.106       .  S
C87          H93   1.086       .  S
C87          C88   1.374       .  D
C88         C973   1.515       .  S
C89          H94   1.071       .  S
C89          C90   1.357       .  D
C90         C124   1.509       .  S
C95          C96   1.532       .  S
C95         C101   1.531       .  S
C95          C99   1.539       .  S
C95         C298   1.516       .  S
C96         H103   1.073       .  S
C96          C97   1.361       .  D
C97          C98   1.516       .  S
C97         C120   1.488       .  S
C98         C102   1.549       .  S
C98         C100   1.530       .  S
C98         H104   1.109       .  S
C99         H105   1.085       .  S
C99         C100   1.372       .  D
C100        C954   1.483       .  S
C101        H106   1.086       .  S
C101        C102   1.375       .  D
C102       C1053   1.477       .  S
C107        C108   1.556       .  S
C107        C113   1.530       .  S
C107        C111   1.536       .  S
C107        C135   1.530       .  S
C108        H115   1.086       .  S
C108        C109   1.384       .  D
C109        C110   1.549       .  S
C109       C1002   1.506       .  S
C110        C114   1.551       .  S
C110        C112   1.541       .  S
C110        H116   1.108       .  S
C111        H117   1.083       .  S
C111        C112   1.361       .  D
C112       C1034   1.494       .  S
C113        H118   1.079       .  S
C113        C114   1.362       .  D
C114        C303   1.504       .  S
O119        C134   1.274       .  A
O119       Al127   1.969       .  S
C120        O130   1.269       .  A
C120        O121   1.263       .  A
O121       Al123   1.914       .  S
O122        C124   1.273       .  A
O122       Al123   1.963       .  S
Al123       O131   1.952       .  S
Al123       O133   1.925       .  S
Al123       O132   1.789       .  S
C124        O137   1.265       .  A
O125        C135   1.272       .  A
O125       Al127   1.944       .  S
O126        C139   1.270       .  A
O126       Al136   1.953       .  S
Al127       O140   1.935       .  S
Al127       O137   1.943       .  S
Al127       O132   1.788       .  S
O128        C135   1.265       .  A
O128       Al136   1.928       .  S
O129        C138   1.263       .  A
O129       Al136   1.916       .  S
O130       Al136   1.952       .  S
O131        C138   1.271       .  A
O132       Al136   1.793       .  S
O133        C134   1.264       .  A
C134        C278   1.502       .  S
C138        C266   1.490       .  S
C139        C254   1.502       .  S
C139        O140   1.268       .  A
C141        N142   1.357       .  A
C141       N2498   1.345   1_455  A
C141        C957   1.447       .  S
N142       C2495   1.354       .  A
C143        N144   1.358       .  A
C143       N2494   1.355       .  A
C143       C3482   1.473       .  S
N144        C145   1.366       .  A
C145        N146   1.343       .  A
C145        C938   1.490       .  S
N146       C2493   1.346       .  A
C147        N148   1.372       .  A
C147       N1328   1.355       .  A
C147        C970   1.506       .  S
N148       C1325   1.376       .  A
C149        N150   1.365       .  A
C149       N1324   1.376       .  A
C149       C2261   1.525       .  S
N150        C151   1.362       .  A
C151        N152   1.359       .  A
C151        C941   1.507       .  S
N152       C1323   1.354       .  A
C153        C154   1.533       .  S
C153        C159   1.535       .  S
C153        C157   1.550       .  S
C153        C190   1.525       .  S
C154       H2513   1.086       .  S
C154        C155   1.370       .  D
C155        C156   1.555       .  S
C155        C922   1.487       .  S
C156        C160   1.554       .  S
C156        C158   1.541       .  S
C156        H162   1.109       .  S
C157        H163   1.086       .  S
C157        C158   1.371       .  D
C158        C906   1.503       .  S
C159        H164   1.084       .  S
C159        C160   1.365       .  D
C160        C360   1.507       .  S
H161       C2506   1.086   1_455  S
C165        C166   1.537       .  S
C165        C171   1.525       .  S
C165        C169   1.527       .  S
C165        C205   1.501       .  S
C166       H1349   1.087   1_545  S
C166        C167   1.359       .  D
C167        C168   1.531       .  S
C167        C890   1.477       .  S
C168        C172   1.548       .  S
C168        C170   1.566       .  S
C168        H174   1.110       .  S
C169       H2527   1.082       .  S
C169        C170   1.369       .  D
C170        C874   1.490       .  S
C171        H176   1.070       .  S
C171        C172   1.357       .  D
C172        C356   1.498       .  S
H173       C1342   1.087       .  S
H175       C2521   1.082   1_455  S
C177        C178   1.556       .  S
C177        C183   1.530       .  S
C177        C181   1.535       .  S
C177        C194   1.538       .  S
C178        H185   1.085       .  S
C178        C179   1.393       .  D
C179        C180   1.548       .  S
C179        C842   1.500       .  S
C180        C184   1.545       .  S
C180        C182   1.555       .  S
C180        H186   1.109       .  S
C181       H1363   1.090   1_545  S
C181        C182   1.347       .  D
C182        C858   1.502   1_545  S
C183        H188   1.078       .  S
C183        C184   1.361       .  D
C184        C361   1.503       .  S
H187       C1357   1.089       .  S
O189        C204   1.262       .  A
O189       Al197   1.923       .  S
C190        O200   1.259       .  A
C190        O191   1.266       .  A
O191      Al2545   1.934       .  S
O192       C1370   1.271       .  A
O192       Al193   1.921       .  S
Al193       O201   1.935   1_455  S
Al193       O203   1.934       .  S
Al193      O2543   1.930       .  S
Al193       O202   1.796       .  S
C194        O207   1.269       .  A
C194       O1368   1.273   1_545  A
O195       C2557   1.253   1_455  A
O195       Al197   1.900       .  S
O196       C1385   1.264       .  A
O196       Al206   1.925       .  S
Al197       O210   1.939       .  S
Al197       O207   1.955       .  S
Al197      O1378   1.807   1_545  S
O198       C1381   1.262       .  A
O198       Al206   1.897       .  S
O199        C208   1.264       .  A
O199       Al206   1.897       .  S
O200       Al206   1.898       .  S
O201       C2560   1.265       .  A
O202      Al1373   1.804       .  S
O202      Al2558   1.785   1_455  S
O203       C1380   1.266       .  A
C204        C317   1.529       .  S
C204       O1379   1.264   1_545  A
C205       O2547   1.253       .  A
C205       O1374   1.261   1_545  A
Al206      O2554   1.787       .  S
C208        C305   1.522       .  S
C208       O2553   1.265       .  A
C209        C329   1.533       .  S
C209       O1372   1.265   1_545  A
C209       O2562   1.277       .  A
O210       C2561   1.279   1_455  A
C211        N212   1.373       .  A
C211        N216   1.359       .  A
C211        C861   1.504       .  S
N212        C213   1.370       .  A
C213        N214   1.356       .  A
C213        C810   1.495       .  S
N214        C215   1.352       .  A
C215        N216   1.354       .  A
C215        C826   1.473       .  S
C217        N218   1.363       .  A
C217        N222   1.352       .  A
C217        C893   1.475       .  S
N218       C1395   1.363       .  A
C219        N220   1.356       .  A
C219       N1394   1.362       .  A
C219        C794   1.470       .  S
N220        C221   1.348       .  A
C221       N1398   1.349       .  A
C221        C829   1.453       .  S
N222       C1397   1.347       .  A
C223        N224   1.357       .  A
C223        N228   1.357       .  A
C223        C877   1.472       .  S
N224        C225   1.357       .  A
C225       N2578   1.353       .  A
C225       C3130   1.497       .  S
N226        C227   1.349       .  A
N226       C2577   1.351       .  A
C227       N2580   1.360       .  A
C227        C762   1.490       .  S
N228       C2579   1.360       .  A
C229        N230   1.366       .  A
C229        N234   1.356       .  A
C229        C746   1.472       .  S
N230        C231   1.363       .  A
C231        N232   1.352       .  A
C231       C3277   1.476       .  S
N232        C233   1.353       .  A
C233        N234   1.353       .  A
C233        C781   1.484       .  S
C235        N236   1.375       .  A
C235        N240   1.355       .  A
C235        C909   1.509       .  S
N236        C237   1.373       .  A
C237        N238   1.352       .  A
C237        C714   1.481       .  S
N238        C239   1.348       .  A
C239        N240   1.349       .  A
C239        C730   1.483       .  S
C241        N242   1.357       .  A
C241        N246   1.349       .  A
C241        C845   1.477       .  S
N242        C243   1.360       .  A
C243        N244   1.353       .  A
C243        C698   1.441       .  S
N244        C245   1.346       .  A
C245        N246   1.351       .  A
C245        C733   1.489       .  S
C247        C248   1.550       .  S
C247        C253   1.532       .  S
C247        C251   1.543       .  S
C247        C299   1.528       .  S
C248        H255   1.079   1_455  S
C248        C249   1.372       .  D
C249        C250   1.543       .  S
C249        C749   1.514       .  S
C250        C254   1.547       .  S
C250        C252   1.549       .  S
C250        H256   1.107       .  S
C251        H257   1.085       .  S
C251        C252   1.375       .  D
C252        C813   1.499       .  S
C253        H258   1.082       .  S
C253        C254   1.362       .  D
C259        C260   1.526       .  S
C259        C265   1.527       .  S
C259        C263   1.538       .  S
C259        C288   1.522       .  S
C260        H267   1.086       .  S
C260        C261   1.356       .  D
C261        C262   1.539       .  S
C261        C701   1.476       .  S
C262        C266   1.539       .  S
C262        C264   1.549       .  S
C262        H268   1.109       .  S
C263       H2621   1.084   1_455  S
C263        C264   1.384       .  D
C264        C765   1.499       .  S
C265        H270   1.075       .  S
C265        C266   1.361       .  D
H269       C2615   1.084       .  S
C271        C272   1.537       .  S
C271        C277   1.525       .  S
C271        C275   1.548       .  S
C271        C284   1.522       .  S
C272       H1455   1.088       .  S
C272        C273   1.361       .  D
C273        C274   1.542       .  S
C273        C797   1.482       .  S
C274        C278   1.549       .  S
C274        C276   1.558       .  S
C274        H280   1.107       .  S
C275        H281   1.085       .  S
C275        C276   1.386       .  D
C276        C717   1.511       .  S
C277        H282   1.077       .  S
C277        C278   1.354       .  D
H279       C1448   1.087   1_545  S
O283        C298   1.264       .  A
O283       Al291   1.919       .  S
C284        O294   1.264       .  A
C284        O285   1.270       .  A
O285      Al1463   1.936       .  S
O286        C288   1.261   1_655  A
O286      Al2639   1.899       .  S
Al287      O1461   1.938   1_545  S
Al287      O2638   1.891       .  S
Al287      O1471   1.905       .  S
Al287      O2649   1.925       .  S
Al287      O3824   1.788       .  S
C288        O301   1.272       .  A
O289        C299   1.267       .  A
O289      Al1467   1.929       .  S
O290        C303   1.272   1_655  A
O290      Al2652   1.948       .  S
Al291       O301   1.955       .  S
Al291      O1465   1.933       .  S
Al291      O1480   1.943   1_545  S
Al291      O1472   1.789   1_455  S
O292        C299   1.268       .  A
O292      Al2652   1.930   1_455  S
O293        C302   1.274       .  A
O293       Al300   1.971       .  S
O294       Al300   1.930       .  S
O295        C302   1.261       .  A
O295      Al1463   1.905       .  S
O296      Al3815   1.788       .  S
O296      Al1467   1.785   1_655  S
O296      Al2652   1.787       .  S
O297        C298   1.267       .  A
O297      Al2639   1.926   1_455  S
Al300      O2642   1.948       .  S
Al300      O2644   1.934       .  S
Al300      O2648   1.789       .  S
C303        O304   1.270       .  A
O304      Al1467   1.945       .  S
C305        C306   1.524       .  S
C305        C311   1.525       .  S
C305        C309   1.562       .  S
C306        H313   1.087       .  S
C306        C307   1.361       .  D
C307        C308   1.565       .  S
C307        C682   1.524       .  S
C308        C312   1.556       .  S
C308        C310   1.513       .  S
C308        H314   1.099       .  S
C309        H315   1.085       .  S
C309        C310   1.387       .  D
C310        C666   1.490       .  S
C311        H316   1.081       .  S
C311        C312   1.365       .  D
C312        C342   1.504       .  S
C317        C318   1.533       .  S
C317        C323   1.545       .  S
C317        C321   1.538       .  S
C318        H325   1.068       .  S
C318        C319   1.358       .  D
C319        C320   1.512       .  S
C319        C357   1.484       .  S
C320        C324   1.535       .  S
C320        C322   1.536       .  S
C320        H326   1.108       .  S
C321        H327   1.085   1_545  S
C321        C322   1.373       .  D
C322        C637   1.471       .  S
C323        H328   1.083       .  S
C323        C324   1.385       .  D
C324        C650   1.504       .  S
C329        C330   1.536       .  S
C329        C335   1.526       .  S
C329        C333   1.539       .  S
C330        H337   1.087       .  S
C330        C331   1.363       .  D
C331        C332   1.539       .  S
C331        C618   1.489       .  S
C332        C336   1.561       .  S
C332        C334   1.576       .  S
C332        H338   1.096       .  S
C333        H339   1.082   1_545  S
C333        C334   1.392       .  D
C334        C602   1.538       .  S
C335        H340   1.077       .  S
C335        C336   1.360       .  D
C336        C346   1.523       .  S
O341        C356   1.276       .  A
O341       Al349   1.938       .  S
C342        O352   1.258       .  A
C342        O343   1.269       .  A
O343       Al345   1.945       .  S
O344        C346   1.268       .  A
O344       Al345   1.978       .  S
Al345       O353   1.931       .  S
Al345       O355   1.963       .  S
Al345       O354   1.796       .  S
C346        O359   1.260       .  A
O347        C357   1.274       .  A
O347       Al349   1.918       .  S
O348        C361   1.258       .  A
O348       Al358   1.927       .  S
Al349       O362   1.933       .  S
Al349       O359   1.937       .  S
Al349       O354   1.800       .  S
O350        C357   1.277       .  A
O350       Al358   1.950       .  S
O351        C360   1.269       .  A
O351       Al358   1.945       .  S
O352       Al358   1.912       .  S
O353        C360   1.266       .  A
O354       Al358   1.799       .  S
O355        C356   1.278       .  A
C361        O362   1.255       .  A
C363        N364   1.360       .  A
C363        N368   1.365       .  A
C363        C605   1.490       .  S
N364        C365   1.364       .  A
C365       N1542   1.349       .  A
C365        C573   1.479   1_545  S
N366        C367   1.346       .  A
N366       C1541   1.347       .  A
C367       N1544   1.363       .  A
C367        C586   1.491       .  S
N368       C1543   1.363       .  A
C369        N370   1.360       .  A
C369        N374   1.369       .  A
C369        C685   1.511       .  S
N370        C371   1.358       .  A
C371        N372   1.356       .  A
C371        C589   1.497       .  S
N372        C373   1.356       .  A
C373        N374   1.372       .  A
C373        C554   1.500       .  S
C375        N376   1.349       .  A
C375       N1556   1.374       .  A
C375       C1810   1.473       .  S
N376        C377   1.335       .  A
C377        N378   1.349       .  A
C377        C538   1.450       .  S
N378        C379   1.351       .  A
C379       N1556   1.371       .  A
C379        C522   1.502       .  S
N380       C1551   1.374       .  A
N380       C1555   1.370       .  A
C381        N382   1.349   1_655  A
C381       N2738   1.359       .  A
C381       C3021   1.459       .  S
N382        C383   1.343       .  A
C383        N384   1.354       .  A
C383        C541   1.442       .  S
N384        C385   1.356   1_455  A
C385       N2738   1.365       .  A
C385        C506   1.479       .  S
N386       C2733   1.359       .  A
N386       C2737   1.364       .  A
C387        N388   1.357       .  A
C387        N392   1.364       .  A
C387        C653   1.479       .  S
N388        C389   1.348       .  A
C389        N390   1.349       .  A
C389        C493   1.458       .  S
N390        C391   1.353       .  A
C391        N392   1.359       .  A
C391        C474   1.461       .  S
C393        N394   1.346       .  A
C393        N398   1.377       .  A
C393        C621   1.482       .  S
N394       C2747   1.343       .  A
C395        N396   1.339       .  A
C395       N2746   1.343       .  A
C395        C490   1.441       .  S
N396       C2749   1.353       .  A
C397        N398   1.378       .  A
C397       N2748   1.353       .  A
C397        C458   1.486       .  S
C399        C400   1.529       .  S
C399        C405   1.530       .  S
C399        C403   1.537       .  S
C399        C451   1.532       .  S
C400        H407   1.088       .  S
C400        C401   1.361       .  D
C401        C402   1.557       .  S
C401        C477   1.486       .  S
C402        C406   1.557       .  S
C402        C404   1.568       .  S
C402        H408   1.106       .  S
C403        H409   1.081       .  S
C403        C404   1.384       .  D
C404        C557   1.526       .  S
C405        H410   1.064       .  S
C405        C406   1.357       .  D
C411        C412   1.540       .  S
C411        C417   1.524   1_545  S
C411        C415   1.530       .  S
C411        C436   1.515       .  S
C412        H419   1.081       .  S
C412        C413   1.373   1_545  D
C413       C1590   1.541       .  S
C413        C570   1.503       .  S
C414        C418   1.542       .  S
C414       C1589   1.540       .  S
C414       C1592   1.565       .  S
C414        H420   1.107       .  S
C415        H421   1.083       .  S
C415        C416   1.374   1_545  D
C416       C1590   1.564       .  S
C416        C525   1.500       .  S
C417        H422   1.075       .  S
C417       C1594   1.353       .  D
C418       C1593   1.353       .  D
C423        C424   1.537       .  S
C423        C429   1.534       .  S
C423        C427   1.547       .  S
C423        C440   1.529       .  S
C424        H431   1.084       .  S
C424        C425   1.379       .  D
C425       C2778   1.553       .  S
C425        C509   1.485       .  S
C426        C430   1.541       .  S
C426       C2777   1.552   1_455  S
C426       C2780   1.538   1_455  S
C426        H432   1.111       .  S
C427        H433   1.086       .  S
C427        C428   1.356       .  D
C428       C2778   1.541       .  S
C428        C461   1.488       .  S
C429        H434   1.080       .  S
C429       C2782   1.367       .  D
C430       C2781   1.365   1_455  D
O435        C450   1.273       .  A
O435       Al443   1.962       .  S
C436        O446   1.255       .  A
C436        O437   1.263       .  A
O437       Al439   1.912   1_556  S
O438        C440   1.257       .  A
O438       Al439   1.880   1_556  S
Al439       O447   1.899       .  S
Al439       O449   1.914       .  S
Al439       O448   1.798       .  S
C440        O453   1.270       .  A
O441        C451   1.262       .  A
O441       Al443   1.931   1_556  S
O442        C455   1.255       .  A
O442       Al452   1.878       .  S
Al443       O456   1.985       .  S
Al443       O453   1.967   1_554  S
Al443       O448   1.807       .  S
O444        C451   1.270       .  A
O444       Al452   1.928   1_556  S
O445        C454   1.269       .  A
O445       Al452   1.944       .  S
O446       Al452   1.899   1_556  S
O447        C454   1.258       .  A
O448       Al452   1.798       .  S
O449        C450   1.262       .  A
C455        O456   1.281       .  A
C457        C458   1.395       .  A
C457        C462   1.411       .  A
C457        H464   1.082       .  S
C458        C459   1.422       .  A
C459       C2818   1.497       .  S
C459        C460   1.394       .  A
C460        C461   1.389       .  A
C460       H2817   1.085       .  S
C461        C462   1.422       .  A
C462        C463   1.499       .  S
C463        H467   1.107       .  S
C463        H468   1.103       .  S
C463        H469   1.107       .  S
H465       C2812   1.085       .  S
C466       C2811   1.499       .  S
C466        H470   1.110       .  S
C466        H472   1.110       .  S
C466       H2823   1.104       .  S
H471       C2818   1.106       .  S
C473        C474   1.406       .  A
C473        C478   1.402       .  A
C473        H480   1.082       .  S
C474        C475   1.399       .  A
C475        C482   1.497       .  S
C475        C476   1.397       .  A
C476        C477   1.410       .  A
C476        H481   1.082       .  S
C477        C478   1.401       .  A
C478        C479   1.498       .  S
C479        H483   1.108       .  S
C479        H484   1.110       .  S
C479        H485   1.110       .  S
C482        H486   1.110       .  S
C482        H487   1.109       .  S
C482        H488   1.110       .  S
C489        C490   1.406       .  A
C489        C494   1.409       .  A
C489        H496   1.084       .  S
C490        C491   1.406       .  A
C491        C498   1.510       .  S
C491        C492   1.365       .  A
C492        C493   1.399       .  A
C492        H497   1.083       .  S
C493        C494   1.408       .  A
C494        C495   1.499       .  S
C495        H499   1.100       .  S
C495        H500   1.107       .  S
C495        H501   1.109       .  S
C498        H504   1.110       .  S
C498       H2854   1.109       .  S
C498       H2855   1.099       .  S
H502       C2850   1.108       .  S
H503       C2850   1.100       .  S
C505        C506   1.406   1_455  A
C505        C510   1.402       .  A
C505        H512   1.085       .  S
C506       C2859   1.405       .  A
C507        C514   1.505       .  S
C507        C508   1.403       .  A
C507       C2858   1.404       .  A
C508        C509   1.405       .  A
C508        H513   1.076       .  S
C509       C2862   1.411       .  A
C510        C511   1.508       .  S
C510       C2861   1.413   1_455  A
C511        H515   1.110       .  S
C511        H516   1.111       .  S
C511        H517   1.109       .  S
C514        H518   1.110       .  S
C514        H519   1.109       .  S
C514        H520   1.109       .  S
C521        C526   1.411       .  A
C521       C1698   1.401   1_545  A
C521        H528   1.084       .  S
C522        C523   1.433       .  A
C522       C1697   1.402       .  A
C523        C530   1.511       .  S
C523        C524   1.401       .  A
C524       C1701   1.394       .  A
C524        H529   1.085       .  S
C525        C526   1.426   1_565  A
C525       C1700   1.394       .  A
C526        C527   1.504       .  S
C527        H531   1.111       .  S
C527        H532   1.106       .  S
C527        H533   1.109       .  S
C530        H534   1.108       .  S
C530        H535   1.106       .  S
C530        H536   1.110       .  S
C537        C538   1.403       .  A
C537        C542   1.407       .  A
C537        H544   1.084       .  S
C538        C539   1.411       .  A
C539        C546   1.510       .  S
C539        C540   1.365       .  A
C540        C541   1.388       .  A
C540        H545   1.083       .  S
C541        C542   1.413       .  A
C542        C543   1.501       .  S
C543        H547   1.110       .  S
C543        H548   1.106       .  S
C543        H549   1.109       .  S
C546        H550   1.105       .  S
C546        H551   1.101       .  S
C546        H552   1.110       .  S
C553        C554   1.406       .  A
C553        C558   1.408       .  A
C553        H560   1.084       .  S
C554        C555   1.411       .  A
C555        C562   1.501       .  S
C555        C556   1.412       .  A
C556        C557   1.413       .  A
C556        H561   1.077       .  S
C557        C558   1.424       .  A
C558        C559   1.507       .  S
C559        H563   1.111       .  S
C559        H564   1.109       .  S
C559        H565   1.108       .  S
C562        H566   1.104       .  S
C562        H567   1.110       .  S
C562        H568   1.107       .  S
C569        C570   1.411       .  A
C569        C574   1.399       .  A
C569       H1752   1.075       .  S
C570        C571   1.417       .  A
C571        C578   1.507   1_565  S
C571        C572   1.401   1_565  A
C572        C573   1.407   1_545  A
C572        H577   1.083       .  S
C573        C574   1.407       .  A
C574       C1751   1.505       .  S
C575       C1750   1.506       .  S
C575        H579   1.109       .  S
C575        H580   1.109       .  S
C575        H581   1.106       .  S
H576       C1745   1.075       .  S
C578        H582   1.109   1_545  S
C578        H583   1.111       .  S
C578        H584   1.111   1_545  S
C585        C586   1.405       .  A
C585        C590   1.402       .  A
C585        H592   1.077       .  S
C586        C587   1.427       .  A
C587        C594   1.505       .  S
C587        C588   1.405       .  A
C588        C589   1.403       .  A
C588        H593   1.084       .  S
C589        C590   1.408       .  A
C590        C591   1.497       .  S
C591        H595   1.111       .  S
C591        H596   1.100       .  S
C591        H597   1.110       .  S
C594        H598   1.110       .  S
C594        H599   1.105       .  S
C594        H600   1.110       .  S
C601        C602   1.418   1_565  A
C601        C606   1.409       .  A
C601        H608   1.080       .  S
C602        C603   1.430       .  A
C603        C610   1.504       .  S
C603        C604   1.415       .  A
C604        C605   1.399       .  A
C604        H609   1.084       .  S
C605        C606   1.405   1_545  A
C606        C607   1.505       .  S
C607        H611   1.110       .  S
C607        H613   1.105       .  S
C607       H1788   1.111       .  S
C610        H614   1.108       .  S
C610        H615   1.106       .  S
C610        H616   1.110       .  S
H612       C1783   1.111       .  S
C617        C618   1.403       .  A
C617        C622   1.396       .  A
C617        H624   1.084       .  S
C618        C619   1.396       .  A
C619        C626   1.502       .  S
C619        C620   1.409       .  A
C620        C621   1.403       .  A
C620        H625   1.069       .  S
C621        C622   1.416       .  A
C622        C623   1.491       .  S
C623        H627   1.110       .  S
C623        H628   1.099       .  S
C623        H629   1.110       .  S
C626        H630   1.104       .  S
C626        H631   1.110       .  S
C626        H632   1.100       .  S
C633        C634   1.405       .  A
C633        C638   1.405       .  A
C633        H640   1.084       .  S
C634       C1551   1.476   1_545  S
C634        C635   1.422       .  A
C635       C1818   1.502   1_545  S
C635        C636   1.395       .  A
C636        C637   1.392       .  A
C636        H641   1.085       .  S
C637        C638   1.416       .  A
C638        C639   1.509       .  S
C639        H643   1.110       .  S
C639        H644   1.110   1_545  S
C639        H645   1.103       .  S
C642       C1811   1.502       .  S
C642        H646   1.110       .  S
C642        H648   1.108       .  S
C642       H1823   1.107       .  S
H647       C1818   1.107       .  S
C649        C650   1.419       .  A
C649        C654   1.397       .  A
C649        H656   1.074       .  S
C650        C651   1.413       .  A
C651        C658   1.507       .  S
C651        C652   1.399       .  A
C652        C653   1.412       .  A
C652        H657   1.084       .  S
C653        C654   1.402       .  A
C654        C655   1.509       .  S
C655        H659   1.109       .  S
C655        H660   1.109       .  S
C655        H661   1.111       .  S
C658        H662   1.111       .  S
C658        H663   1.108       .  S
C658        H664   1.111       .  S
C665        C666   1.398       .  A
C665       C3022   1.388       .  A
C665       H3024   1.083       .  S
C666        C667   1.430       .  A
C667        C674   1.509       .  S
C667        C668   1.406       .  A
C668        C669   1.396       .  A
C668        H673   1.084       .  S
C669       C2733   1.461       .  S
C669       C3022   1.407       .  A
C670        C671   1.499   1_655  S
C670       C3017   1.390       .  A
C670       C3021   1.409       .  A
C671        H675   1.102   1_455  S
C671        H676   1.109       .  S
C671        H677   1.109       .  S
H672       C3017   1.083       .  S
C674        H678   1.105       .  S
C674        H679   1.111       .  S
C674        H680   1.106       .  S
C681        C682   1.412       .  A
C681        C686   1.399       .  A
C681        H688   1.082       .  S
C682        C683   1.408       .  A
C683        C690   1.492       .  S
C683        C684   1.420       .  A
C684        C685   1.413       .  A
C684        H689   1.084       .  S
C685        C686   1.426       .  A
C686        C687   1.512       .  S
C687        H691   1.111       .  S
C687        H692   1.108       .  S
C687        H693   1.101       .  S
C690        H694   1.107       .  S
C690        H695   1.108       .  S
C690        H696   1.103       .  S
C697        C698   1.388       .  A
C697        C702   1.392       .  A
C697        H704   1.086       .  S
C698        C699   1.408       .  A
C699        C706   1.504       .  S
C699        C700   1.395       .  A
C700        C701   1.399       .  A
C700        H705   1.084       .  S
C701        C702   1.432       .  A
C702        C703   1.514       .  S
C703        H707   1.110       .  S
C703        H708   1.106       .  S
C703        H709   1.101       .  S
C706        H710   1.110       .  S
C706        H711   1.110       .  S
C706        H712   1.109       .  S
C713        C714   1.401       .  A
C713        C718   1.407       .  A
C713        H720   1.082       .  S
C714        C715   1.410       .  A
C715        C722   1.507       .  S
C715        C716   1.414       .  A
C716        C717   1.414       .  A
C716        H721   1.083       .  S
C717        C718   1.421       .  A
C718        C719   1.507       .  S
C719        H723   1.110       .  S
C719        H724   1.106       .  S
C719        H725   1.110       .  S
C722        H726   1.108       .  S
C722        H727   1.110       .  S
C722        H728   1.107       .  S
C729        C730   1.417       .  A
C729        C734   1.407       .  A
C729        H736   1.083       .  S
C730        C731   1.426       .  A
C731        C738   1.508       .  S
C731        C732   1.405       .  A
C732        C733   1.396       .  A
C732        H737   1.084       .  S
C733        C734   1.406       .  A
C734        C735   1.500       .  S
C735        H739   1.111       .  S
C735        H740   1.110       .  S
C735        H741   1.110       .  S
C738        H742   1.109       .  S
C738        H743   1.108       .  S
C738        H744   1.110       .  S
C745        C746   1.396       .  A
C745        C750   1.408       .  A
C745       H3104   1.082       .  S
C746        C747   1.408   1_655  A
C747        C754   1.508       .  S
C747        C748   1.402       .  A
C748        C749   1.411       .  A
C748        H753   1.083       .  S
C749        C750   1.432   1_455  A
C750       C3103   1.509       .  S
C751       C3102   1.509       .  S
C751        H755   1.111       .  S
C751        H756   1.110       .  S
C751        H757   1.104       .  S
H752       C3097   1.082       .  S
C754        H758   1.110       .  S
C754        H759   1.109       .  S
C754        H760   1.110       .  S
C761       C3114   1.413       .  A
C761       C3118   1.397       .  A
C761        H768   1.083       .  S
C762        C763   1.414   1_655  A
C762       C3113   1.415       .  A
C763        C770   1.508       .  S
C763        C764   1.400       .  A
C764        C765   1.408       .  A
C764        H769   1.076       .  S
C765        C766   1.410   1_455  A
C766       C3119   1.508       .  S
C766       C3113   1.397       .  A
C767       C3118   1.507       .  S
C767        H771   1.110       .  S
C767        H772   1.110       .  S
C767       H3125   1.109       .  S
C770        H774   1.110       .  S
C770        H775   1.109       .  S
C770        H776   1.109       .  S
H773       C3119   1.109       .  S
C777        C778   1.409       .  A
C777        C782   1.412       .  A
C777        H784   1.080       .  S
C778       C2577   1.495       .  S
C778       C3131   1.399       .  A
C779        C786   1.500       .  S
C779        C780   1.401       .  A
C779       C3130   1.401       .  A
C780       C3133   1.414       .  A
C780        H785   1.081       .  S
C781        C782   1.427       .  A
C781       C3132   1.414       .  A
C782        C783   1.507       .  S
C783        H787   1.108       .  S
C783        H788   1.110       .  S
C783        H789   1.111       .  S
C786        H790   1.107       .  S
C786        H791   1.107       .  S
C786        H792   1.111       .  S
C793        C794   1.404       .  A
C793        C798   1.396       .  A
C793       H1976   1.085       .  S
C794        C795   1.407       .  A
C795        C802   1.505       .  S
C795        C796   1.405       .  A
C796        C797   1.412       .  A
C796        H801   1.084       .  S
C797        C798   1.403       .  A
C798        C799   1.506       .  S
C799        H804   1.109       .  S
C799       H1979   1.111       .  S
C799       H1981   1.110       .  S
H800       C1969   1.085       .  S
C802        H806   1.105       .  S
C802        H807   1.108       .  S
C802        H808   1.110       .  S
H803       C1975   1.111       .  S
H805       C1975   1.110       .  S
C809        C810   1.402       .  A
C809        C814   1.416       .  A
C809       H1992   1.084       .  S
C810        C811   1.424       .  A
C811        C818   1.505       .  S
C811        C812   1.400       .  A
C812        C813   1.395       .  A
C812        H817   1.085       .  S
C813        C814   1.422       .  A
C814       C1991   1.502       .  S
C815       C1990   1.501       .  S
C815        H819   1.109       .  S
C815        H820   1.103       .  S
C815        H821   1.108       .  S
H816       C1985   1.084       .  S
C818        H822   1.107       .  S
C818        H823   1.105       .  S
C818        H824   1.111       .  S
C825        C830   1.374       .  A
C825       C2002   1.402       .  A
C825        H832   1.080       .  S
C826        C827   1.410       .  A
C826       C2001   1.402       .  A
C827        C834   1.499       .  S
C827        C828   1.414       .  A
C828        C829   1.407       .  A
C828        H833   1.083       .  S
C829       C2006   1.408       .  A
C830        C831   1.515       .  S
C830       C2005   1.409       .  A
C831        H835   1.108       .  S
C831        H836   1.103       .  S
C831        H837   1.110       .  S
C834        H838   1.109       .  S
C834        H839   1.110       .  S
C834        H840   1.110       .  S
C841        C842   1.405       .  A
C841        C846   1.383       .  A
C841        H848   1.074       .  S
C842        C843   1.414       .  A
C843        C850   1.505       .  S
C843        C844   1.413       .  A
C844        C845   1.411       .  A
C844        H849   1.084       .  S
C845        C846   1.411       .  A
C846        C847   1.515       .  S
C847        H851   1.109   1_545  S
C847        H852   1.108       .  S
C847        H853   1.109       .  S
C850        H854   1.108       .  S
C850        H855   1.105       .  S
C850        H856   1.111       .  S
C857        C862   1.407       .  A
C857       C2034   1.415       .  A
C857        H864   1.082       .  S
C858        C859   1.402       .  A
C858       C2033   1.418       .  A
C859        C866   1.506       .  S
C859        C860   1.404       .  A
C860       C2037   1.421       .  A
C860        H865   1.083       .  S
C861        C862   1.412       .  A
C861       C2036   1.421       .  A
C862        C863   1.505       .  S
C863        H867   1.111       .  S
C863        H868   1.099       .  S
C863        H869   1.108       .  S
C866        H870   1.109       .  S
C866        H871   1.110       .  S
C866        H872   1.110       .  S
C873        C874   1.395       .  A
C873        C878   1.394       .  A
C873        H880   1.084       .  S
C874        C875   1.427       .  A
C875        C882   1.508       .  S
C875        C876   1.407       .  A
C876        C877   1.397       .  A
C876        H881   1.084       .  S
C877        C878   1.411       .  A
C878        C879   1.496       .  S
C879        H883   1.108       .  S
C879        H884   1.101       .  S
C879        H885   1.109       .  S
C882        H886   1.107       .  S
C882        H888   1.111       .  S
C882       H3239   1.106       .  S
H887       C3234   1.107       .  S
C889        C894   1.402       .  A
C889       C2066   1.406       .  A
C889        H896   1.076       .  S
C890        C891   1.399       .  A
C890       C2065   1.407       .  A
C891        C898   1.507       .  S
C891        C892   1.398   1_545  A
C892        C893   1.411       .  A
C892        H897   1.079       .  S
C893       C2070   1.405   1_565  A
C894        C895   1.509       .  S
C894       C2069   1.406       .  A
C895        H899   1.110       .  S
C895        H900   1.108       .  S
C895        H901   1.106       .  S
C898        H902   1.110       .  S
C898        H903   1.110   1_545  S
C898        H904   1.110   1_545  S
C905        C906   1.410       .  A
C905        C910   1.411       .  A
C905        H912   1.083       .  S
C906        C907   1.412       .  A
C907        C914   1.507       .  S
C907        C908   1.404       .  A
C908        C909   1.413       .  A
C908        H913   1.080       .  S
C909        C910   1.412       .  A
C910        C911   1.495       .  S
C911        H915   1.105       .  S
C911        H916   1.108       .  S
C911        H917   1.106       .  S
C914        H918   1.107       .  S
C914        H919   1.111       .  S
C914        H920   1.111       .  S
C921        C922   1.405       .  A
C921        C926   1.408       .  A
C921        H928   1.081       .  S
C922       C3275   1.405       .  A
C923        C930   1.504   1_655  S
C923        C924   1.407       .  A
C923       C3274   1.406       .  A
C924       C3277   1.406       .  A
C924        H929   1.082       .  S
C925       C2583   1.479       .  S
C925        C926   1.407       .  A
C925       C3276   1.405       .  A
C926        C927   1.504       .  S
C927        H931   1.106       .  S
C927        H932   1.110       .  S
C927        H933   1.110       .  S
C930        H934   1.110       .  S
C930        H935   1.110       .  S
C930        H936   1.110   1_455  S
C937        C938   1.382       .  A
C937        C942   1.404       .  A
C937        H944   1.078       .  S
C938        C939   1.406       .  A
C939        C946   1.502       .  S
C939        C940   1.406       .  A
C940        C941   1.419       .  A
C940        H945   1.083       .  S
C941        C942   1.439       .  A
C942        C943   1.485       .  S
C943        H947   1.110       .  S
C943        H948   1.108       .  S
C943        H949   1.078       .  S
C946        H950   1.109       .  S
C946        H951   1.110       .  S
C946        H952   1.109       .  S
C953        C954   1.412       .  A
C953        C958   1.386       .  A
C953        H960   1.071       .  S
C954        C955   1.413       .  A
C955        C962   1.508   1_455  S
C955        C956   1.396   1_455  A
C956        C957   1.405   1_655  A
C956       H3313   1.086       .  S
C957        C958   1.396       .  A
C958        C959   1.511       .  S
C959        H963   1.109       .  S
C959        H964   1.107       .  S
C959        H965   1.110       .  S
H961       C3308   1.085       .  S
C962        H966   1.107       .  S
C962        H967   1.111       .  S
C962       H3320   1.111       .  S
H968       C3314   1.111       .  S
C969        C970   1.396       .  A
C969        C974   1.411       .  A
C969        H976   1.080       .  S
C970        C971   1.421       .  A
C971       C2154   1.500       .  S
C971        C972   1.418       .  A
C972        C973   1.404       .  A
C972        H977   1.083       .  S
C973        C974   1.427       .  A
C974        C975   1.503       .  S
C975        H979   1.104       .  S
C975        H980   1.109       .  S
C975        H981   1.092       .  S
C978       C2147   1.501       .  S
C978        H982   1.106       .  S
C978        H983   1.109       .  S
C978        H984   1.110       .  S
C985        C986   1.401       .  A
C985        C990   1.405       .  A
C985        H992   1.084       .  S
C986        C987   1.405       .  A
C987        C994   1.508       .  S
C987        C988   1.402       .  A
C988        C989   1.415       .  A
C988        H993   1.077       .  S
C989        C990   1.419       .  A
C990        C991   1.506       .  S
C991        H995   1.110       .  S
C991        H996   1.109       .  S
C991        H997   1.103       .  S
C994        H998   1.111       .  S
C994        H999   1.110       .  S
C994       H1000   1.111       .  S
C1001      C1002   1.412       .  A
C1001      C1006   1.415       .  A
C1001      H1008   1.079       .  S
C1002      C1003   1.414   1_455  A
C1003      C1010   1.506       .  S
C1003      C1004   1.406       .  A
C1004      C1005   1.403   1_655  A
C1004      H1009   1.085       .  S
C1005      C1006   1.410       .  A
C1006      C1007   1.505       .  S
C1007      H1011   1.110       .  S
C1007      H1012   1.111       .  S
C1007      H1013   1.109       .  S
C1010      H1014   1.104       .  S
C1010      H3367   1.110       .  S
C1010      H3368   1.109       .  S
H1015      C3362   1.110       .  S
H1016      C3362   1.109       .  S
C1017      C1018   1.399       .  A
C1017      C1022   1.397       .  A
C1017      H1024   1.084       .  S
C1018      C2427   1.481       .  S
C1018      C1019   1.412       .  A
C1019      C3378   1.503       .  S
C1019      C1020   1.401       .  A
C1020      C1021   1.408       .  A
C1020      H1025   1.084       .  S
C1021      C1022   1.416       .  A
C1022      C1023   1.489       .  S
C1023      H1027   1.111       .  S
C1023      H1028   1.111       .  S
C1023      H1029   1.101       .  S
C1026      C3371   1.503   1_455  S
C1026      H1030   1.111   1_455  S
C1026      H1031   1.111       .  S
C1026      H1032   1.110       .  S
C1033      C1034   1.403       .  A
C1033      C1038   1.399       .  A
C1033      H1040   1.085       .  S
C1034      C1035   1.429       .  A
C1035      C1042   1.512       .  S
C1035      C1036   1.403       .  A
C1036      C1037   1.396       .  A
C1036      H1041   1.085       .  S
C1037      C1038   1.412       .  A
C1038      C1039   1.507       .  S
C1039      H1043   1.110       .  S
C1039      H1044   1.108       .  S
C1039      H1045   1.110       .  S
C1042      H1046   1.105       .  S
C1042      H1047   1.108       .  S
C1042      H1048   1.111       .  S
C1049      C1050   1.407       .  A
C1049      C1054   1.400       .  A
C1049      H1056   1.084       .  S
C1050      C1051   1.414       .  A
C1051      C1058   1.507       .  S
C1051      C1052   1.403       .  A
C1052      C1053   1.406       .  A
C1052      H1057   1.084       .  S
C1053      C1054   1.409       .  A
C1054      C1055   1.506       .  S
C1055      H1059   1.110       .  S
C1055      H1060   1.103       .  S
C1055      H1061   1.108       .  S
C1058      H1062   1.110       .  S
C1058      H1063   1.110       .  S
C1058      H1064   1.110       .  S
C1065      C1066   1.407       .  A
C1065      C1070   1.399       .  A
C1065      H1072   1.084       .  S
C1066      C1243   1.480       .  S
C1066      C1067   1.420       .  A
C1067      C1074   1.510       .  S
C1067      C1068   1.405       .  A
C1068      C1069   1.404       .  A
C1068      H1073   1.083       .  S
C1069      C1070   1.412       .  A
C1070      C1071   1.502       .  S
C1071      H1075   1.107       .  S
C1071      H1076   1.111       .  S
C1071      H1077   1.108       .  S
C1074      H1078   1.104       .  S
C1074      H1079   1.109       .  S
C1074      H1080   1.110       .  S
C1081      C1086   1.402       .  A
C1081      C2258   1.393   1_545  A
C1081      H1088   1.086       .  S
C1082      C1083   1.413       .  A
C1082      C2257   1.394       .  A
C1083      C1090   1.494       .  S
C1083      C1084   1.417       .  A
C1084      C1085   1.410       .  A
C1084      H1089   1.083       .  S
C1085      C1325   1.523       .  S
C1085      C2262   1.432       .  A
C1086      C1087   1.493       .  S
C1086      C2261   1.433       .  A
C1087      H1091   1.106       .  S
C1087      H1092   1.104       .  S
C1087      H1093   1.105       .  S
C1090      H1094   1.110       .  S
C1090      H1095   1.100       .  S
C1090      H1096   1.105       .  S
C1097      C1098   1.403       .  A
C1097      C1102   1.401       .  A
C1097      H1104   1.072       .  S
C1098      C1099   1.406       .  A
C1099      C1106   1.504       .  S
C1099      C1100   1.408       .  A
C1100      C1101   1.408       .  A
C1100      H1105   1.084       .  S
C1101      C1102   1.406       .  A
C1102      C1103   1.507       .  S
C1103      H1107   1.111       .  S
C1103      H1108   1.110       .  S
C1103      H1109   1.111       .  S
C1106      H1110   1.110       .  S
C1106      H1112   1.110       .  S
C1106      H2287   1.110       .  S
H1111      C2282   1.111       .  S
C1113      C1114   1.402       .  A
C1113      C1118   1.395       .  A
C1113      H1120   1.083       .  S
C1114      C1115   1.416   1_455  A
C1115      C3474   1.507       .  S
C1115      C1116   1.410       .  A
C1116      C1117   1.403   1_655  A
C1116      H3473   1.076       .  S
C1117      C1118   1.400       .  A
C1118      C1119   1.492       .  S
C1119      H1123   1.104       .  S
C1119      H1124   1.108       .  S
C1119      H1125   1.106       .  S
H1121      C3468   1.075       .  S
C1122      C3467   1.507       .  S
C1122      H1126   1.108       .  S
C1122      H1127   1.108       .  S
C1122      H1128   1.110       .  S
C1129      C1134   1.410       .  A
C1129      C3482   1.406       .  A
C1129      H1136   1.084       .  S
C1130      C2495   1.470       .  S
C1130      C1131   1.404       .  A
C1130      C3481   1.405   1_455  A
C1131      C1138   1.504       .  S
C1131      C1132   1.402       .  A
C1132      C1133   1.405       .  A
C1132      H1137   1.083       .  S
C1133      C3486   1.405   1_455  A
C1134      C1135   1.505       .  S
C1134      C3485   1.406       .  A
C1135      H1139   1.111       .  S
C1135      H1140   1.110       .  S
C1135      H1141   1.108       .  S
C1138      H1142   1.110       .  S
C1138      H1143   1.107       .  S
C1138      H1144   1.110       .  S
C1145      C1146   1.400       .  A
C1145      C1150   1.399       .  A
C1145      H1152   1.084       .  S
C1146      C1147   1.423       .  A
C1147      C1154   1.509       .  S
C1147      C1148   1.402       .  A
C1148      C1149   1.395       .  A
C1148      H1153   1.084       .  S
C1149      C1150   1.411       .  A
C1150      C1151   1.505       .  S
C1151      H1155   1.108       .  S
C1151      H1156   1.109       .  S
C1151      H1157   1.110       .  S
C1154      H1158   1.098       .  S
C1154      H1159   1.107       .  S
C1154      H1160   1.111       .  S
C1161      C1162   1.412       .  A
C1161      C1166   1.409       .  A
C1161      H1168   1.081       .  S
C1162      C1163   1.402       .  A
C1163      C1170   1.503       .  S
C1163      C1164   1.400       .  A
C1164      C1165   1.407       .  A
C1164      H1169   1.080       .  S
C1165      C1166   1.403       .  A
C1166      C1167   1.500       .  S
C1167      H1171   1.108       .  S
C1167      H1172   1.110       .  S
C1167      H1173   1.110       .  S
C1170      H1174   1.110       .  S
C1170      H1175   1.106       .  S
C1170      H1176   1.106       .  S
C1177      C1178   1.532       .  S
C1177      C1183   1.526       .  S
C1177      C1181   1.537       .  S
C1177      C1229   1.516       .  S
C1178      H1185   1.086       .  S
C1178      C1179   1.371       .  D
C1179      C1180   1.567       .  S
C1179      C2338   1.493       .  S
C1180      C1184   1.547       .  S
C1180      C1182   1.531       .  S
C1180      H1186   1.108       .  S
C1181      H1187   1.085       .  S
C1181      C1182   1.360       .  D
C1182      C2322   1.477       .  S
C1183      H1188   1.076       .  S
C1183      C1184   1.363       .  D
C1184      C1631   1.503       .  S
C1189      C1190   1.545       .  S
C1189      C1195   1.540   1_455  S
C1189      C1193   1.532       .  S
C1189      C1214   1.534       .  S
C1190      H1197   1.086       .  S
C1190      C1191   1.371       .  D
C1191      C1192   1.532   1_455  S
C1191      C2290   1.487       .  S
C1192      C3548   1.546       .  S
C1192      C1194   1.557   1_655  S
C1192      H3550   1.109       .  S
C1193      H1199   1.087       .  S
C1193      C1194   1.369       .  D
C1194      C2309   1.492       .  S
C1195      H1200   1.078       .  S
C1195      C3548   1.370       .  D
C1196      C3544   1.545       .  S
C1196      C3547   1.369       .  D
C1196      C1626   1.505       .  S
H1198      C3544   1.109       .  S
C1201      C1202   1.558       .  S
C1201      C1207   1.527       .  S
C1201      C1205   1.546       .  S
C1201      C1218   1.537       .  S
C1202      H1209   1.084       .  S
C1202      C1203   1.390       .  D
C1203      C2258   1.503       .  S
C1204      C1208   1.527       .  S
C1204      H1210   1.111       .  S
C1205      H1211   1.086       .  S
C1205      C1206   1.367       .  D
C1206      C2274   1.479       .  S
C1207      H1212   1.073       .  S
C1208      C1630   1.482       .  S
O1213      C1228   1.269       .  A
O1213     Al1221   1.941   1_556  S
C1214      O1224   1.267       .  A
C1214      O1215   1.267       .  A
O1215     Al1217   1.910       .  S
O1216      C1218   1.265       .  A
O1216     Al1217   1.921       .  S
Al1217     O1225   1.909   1_554  S
Al1217     O1227   1.925   1_554  S
Al1217     O1226   1.789   1_554  S
C1218      O1231   1.264       .  A
O1219      C1229   1.265       .  A
O1219     Al1221   1.916       .  S
O1220      C1233   1.273       .  A
O1220     Al1230   1.966       .  S
Al1221     O1234   1.936   1_554  S
Al1221     O1231   1.957       .  S
Al1221     O1226   1.803   1_554  S
O1222      C1229   1.265       .  A
O1222     Al1230   1.922   1_554  S
O1223      C1232   1.275       .  A
O1223     Al1230   1.962       .  S
O1224     Al1230   1.953   1_554  S
O1225      C1232   1.262       .  A
O1226     Al1230   1.801       .  S
O1227      C1228   1.264       .  A
C1228      C1594   1.493       .  S
C1232      C1606   1.504       .  S
C1233      C1582   1.516       .  S
C1233      O1234   1.266       .  A
C1235      N1236   1.367       .  A
C1235      N1240   1.351       .  A
C1235      C2226   1.477       .  S
N1236      C1237   1.363       .  A
C1237      N1238   1.351       .  A
C1237      C2341   1.476       .  S
N1238      C1239   1.351       .  A
C1239      N1240   1.348       .  A
C1239      C2245   1.489       .  S
C1241      N1242   1.355       .  A
C1241      N1246   1.365   1_545  A
C1241      C2213   1.465   1_545  S
N1242      C1243   1.352       .  A
C1243      N1244   1.347       .  A
N1244      C1245   1.348       .  A
C1245      N1246   1.361   1_545  A
C1245      C2277   1.467   1_545  S
C1247      N1248   1.365       .  A
C1247      N1252   1.357       .  A
C1247      C2181   1.485       .  S
N1248      C1249   1.365       .  A
C1249      N1250   1.351       .  A
C1249      C2293   1.470       .  S
N1250      C1251   1.352       .  A
C1251      N1252   1.357       .  A
C1251      C4546   1.483       .  S
C1253      N1254   1.357       .  A
C1253      N1258   1.361       .  A
C1253      C2162   1.468       .  S
N1254      C1255   1.356       .  A
C1255      N1256   1.355       .  A
C1255      C2325   1.461       .  S
N1256      C1257   1.354       .  A
C1257      N1258   1.360       .  A
C1257      C2197   1.492       .  S
C1259      C1260   1.538       .  S
C1259      C1265   1.513       .  S
C1259      C1263   1.541       .  S
C1259      C1478   1.533       .  S
C1260      H1267   1.081       .  S
C1260      C1261   1.385       .  D
C1261      C1262   1.551       .  S
C1261      C2165   1.514       .  S
C1262      C1266   1.563       .  S
C1262      C1264   1.568       .  S
C1262      H1268   1.107       .  S
C1263      H1269   1.086   1_565  S
C1263      C1264   1.374       .  D
C1264      C2149   1.520       .  S
C1265      H1270   1.065       .  S
C1265      C1266   1.354       .  D
C1266      C1300   1.514       .  S
C1271      C1272   1.534       .  S
C1271      C1277   1.529       .  S
C1271      C1275   1.543       .  S
C1271      C1474   1.515       .  S
C1272      H1279   1.072       .  S
C1272      C1273   1.362       .  D
C1273      C1274   1.515       .  S
C1273      C1296   1.488       .  S
C1274      C1278   1.547       .  S
C1274      C1276   1.524       .  S
C1274      H1280   1.110       .  S
C1275      H1281   1.086       .  S
C1275      C1276   1.374       .  D
C1276      C2130   1.479       .  S
C1277      H1282   1.086       .  S
C1277      C1278   1.370       .  D
C1278      C2229   1.473       .  S
C1283      C1284   1.553       .  S
C1283      C1289   1.530       .  S
C1283      C1287   1.536       .  S
C1283      C1311   1.527       .  S
C1284      H1291   1.086       .  S
C1284      C1285   1.382       .  D
C1285      C1286   1.548       .  S
C1285      C2178   1.502       .  S
C1286      C1290   1.549       .  S
C1286      C1288   1.540       .  S
C1286      H1292   1.108       .  S
C1287      H1293   1.083       .  S
C1287      C1288   1.362       .  D
C1288      C2210   1.494       .  S
C1289      H1294   1.080       .  S
C1289      C1290   1.363       .  D
C1290      C1479   1.502       .  S
O1295      C1310   1.272       .  A
O1295     Al1303   1.965       .  S
C1296      O1306   1.272       .  A
C1296      O1297   1.261       .  A
O1297     Al1299   1.905       .  S
O1298      C1300   1.276       .  A
O1298     Al1299   1.974       .  S
Al1299     O1307   1.957       .  S
Al1299     O1309   1.920       .  S
Al1299     O1308   1.788       .  S
C1300      O1313   1.266       .  A
O1301      C1311   1.269       .  A
O1301     Al1303   1.936       .  S
O1302      C1315   1.273       .  A
O1302     Al1312   1.959       .  S
Al1303     O1316   1.935       .  S
Al1303     O1313   1.946       .  S
Al1303     O1308   1.788       .  S
O1304      C1311   1.265       .  A
O1304     Al1312   1.931       .  S
O1305      C1314   1.262       .  A
O1305     Al1312   1.914       .  S
O1306     Al1312   1.960       .  S
O1307      C1314   1.271       .  A
O1308     Al1312   1.789       .  S
O1309      C1310   1.261       .  A
C1310      C1454   1.497       .  S
C1314      C1442   1.492       .  S
C1315      C1430   1.503       .  S
C1315      O1316   1.269       .  A
C1317      N1318   1.361       .  A
C1317      N3674   1.345   1_455  A
C1317      C2133   1.454       .  S
N1318      C3671   1.356       .  A
C1319      N3670   1.355       .  A
C1319      N1320   1.358       .  A
C1319      C4658   1.474       .  S
N1320      C1321   1.367       .  A
C1321      N1322   1.343       .  A
C1321      C2114   1.490       .  S
N1322      C3669   1.346       .  A
C1323      N1324   1.372       .  A
C1323      C2146   1.507       .  S
C1325      N1326   1.364       .  A
N1326      C1327   1.360       .  A
C1327      N1328   1.359       .  A
C1327      C2117   1.505       .  S
C1329      C1330   1.533       .  S
C1329      C1335   1.533       .  S
C1329      C1333   1.550       .  S
C1329      C1366   1.522       .  S
C1330      H3689   1.086       .  S
C1330      C1331   1.371       .  D
C1331      C1332   1.555       .  S
C1331      C2098   1.485       .  S
C1332      C1336   1.554       .  S
C1332      C1334   1.545       .  S
C1332      H1338   1.109       .  S
C1333      H1339   1.086       .  S
C1333      C1334   1.370       .  D
C1334      C2082   1.506       .  S
C1335      H1340   1.083       .  S
C1335      C1336   1.364       .  D
C1336      C1536   1.505       .  S
H1337      C3682   1.086   1_455  S
C1341      C1342   1.538       .  S
C1341      C1347   1.524       .  S
C1341      C1345   1.531       .  S
C1341      C1381   1.504       .  S
C1342      C1343   1.357       .  D
C1343      C1344   1.531       .  S
C1343      C2066   1.477       .  S
C1344      C1348   1.547       .  S
C1344      C1346   1.566       .  S
C1344      H1350   1.110       .  S
C1345      H3703   1.082       .  S
C1345      C1346   1.373       .  D
C1346      C2050   1.493       .  S
C1347      H1352   1.073       .  S
C1347      C1348   1.356       .  D
C1348      C1532   1.496       .  S
H1351      C3697   1.082   1_455  S
C1353      C1354   1.553       .  S
C1353      C1359   1.528       .  S
C1353      C1357   1.536       .  S
C1353      C1370   1.535       .  S
C1354      H1361   1.085       .  S
C1354      C1355   1.391       .  D
C1355      C1356   1.550       .  S
C1355      C2018   1.499       .  S
C1356      C1360   1.547       .  S
C1356      C1358   1.556       .  S
C1356      H1362   1.109       .  S
C1357      C1358   1.350       .  D
C1358      C2034   1.503       .  S
C1359      H1364   1.077       .  S
C1359      C1360   1.359       .  D
C1360      C1537   1.503       .  S
O1365      C1380   1.263       .  A
O1365     Al1373   1.919       .  S
C1366      O1376   1.260       .  A
C1366      O1367   1.266       .  A
O1367     Al3721   1.934       .  S
O1368     Al1369   1.922       .  S
Al1369     O3719   1.936       .  S
Al1369     O1377   1.928   1_455  S
Al1369     O1379   1.932       .  S
Al1369     O1378   1.797       .  S
C1370      O1383   1.268       .  A
O1371      C3733   1.254   1_455  A
O1371     Al1373   1.903       .  S
O1372     Al1382   1.925       .  S
Al1373     O1386   1.938       .  S
Al1373     O1383   1.952       .  S
O1374     Al1382   1.898       .  S
O1375      C1384   1.263       .  A
O1375     Al1382   1.888       .  S
O1376     Al1382   1.898       .  S
O1377      C3736   1.264       .  A
O1378     Al3734   1.789   1_455  S
C1380      C1493   1.526       .  S
C1381      O3723   1.254       .  A
Al1382     O3730   1.785       .  S
C1384      C1481   1.519       .  S
C1384      O3729   1.264       .  A
C1385      C1505   1.536       .  S
C1385      O3738   1.277       .  A
O1386      C3737   1.277   1_455  A
C1387      N1388   1.374       .  A
C1387      N1392   1.359       .  A
C1387      C2037   1.503       .  S
N1388      C1389   1.371       .  A
C1389      N1390   1.356       .  A
C1389      C1986   1.495       .  S
N1390      C1391   1.352       .  A
C1391      N1392   1.352       .  A
C1391      C2002   1.473       .  S
C1393      N1394   1.362       .  A
C1393      N1398   1.353       .  A
C1393      C2069   1.475       .  S
C1395      N1396   1.357       .  A
C1395      C1970   1.474       .  S
N1396      C1397   1.348       .  A
C1397      C2005   1.453       .  S
C1399      N1400   1.358       .  A
C1399      N1404   1.358       .  A
C1399      C2053   1.476       .  S
N1400      C1401   1.359       .  A
C1401      N3754   1.352       .  A
C1401      C4306   1.497       .  S
N1402      C3753   1.352       .  A
N1402      C1403   1.349       .  A
C1403      N3756   1.361       .  A
C1403      C1938   1.492       .  S
N1404      C3755   1.361       .  A
C1405      N1406   1.367       .  A
C1405      N1410   1.356       .  A
C1405      C1922   1.474       .  S
N1406      C1407   1.364       .  A
C1407      N1408   1.352       .  A
C1407      C4453   1.479       .  S
N1408      C1409   1.354       .  A
C1409      N1410   1.354       .  A
C1409      C1957   1.484       .  S
C1411      N1412   1.377       .  A
C1411      N1416   1.356       .  A
C1411      C2085   1.512       .  S
N1412      C1413   1.375       .  A
C1413      N1414   1.352       .  A
C1413      C1890   1.485       .  S
N1414      C1415   1.348       .  A
C1415      N1416   1.349       .  A
C1415      C1906   1.483       .  S
C1417      N1418   1.358       .  A
C1417      N1422   1.349       .  A
C1417      C2021   1.477       .  S
N1418      C1419   1.360       .  A
C1419      N1420   1.354       .  A
C1419      C1874   1.441       .  S
N1420      C1421   1.346       .  A
C1421      N1422   1.349       .  A
C1421      C1909   1.490       .  S
C1423      C1424   1.552       .  S
C1423      C1429   1.531       .  S
C1423      C1427   1.544       .  S
C1423      C1475   1.530       .  S
C1424      H1431   1.078   1_455  S
C1424      C1425   1.374       .  D
C1425      C1426   1.542       .  S
C1425      C1925   1.517       .  S
C1426      C1430   1.549       .  S
C1426      C1428   1.550       .  S
C1426      H1432   1.106       .  S
C1427      H1433   1.084       .  S
C1427      C1428   1.376       .  D
C1428      C1989   1.504       .  S
C1429      H1434   1.082       .  S
C1429      C1430   1.361       .  D
C1435      C1436   1.526       .  S
C1435      C1441   1.526       .  S
C1435      C1439   1.540       .  S
C1435      C1464   1.521       .  S
C1436      H1443   1.086       .  S
C1436      C1437   1.356       .  D
C1437      C1438   1.540       .  S
C1437      C1877   1.477       .  S
C1438      C1442   1.541       .  S
C1438      C1440   1.551       .  S
C1438      H1444   1.109       .  S
C1439      H3797   1.084   1_455  S
C1439      C1440   1.383       .  D
C1440      C1941   1.502       .  S
C1441      H1446   1.075       .  S
C1441      C1442   1.360       .  D
H1445      C3791   1.084       .  S
C1447      C1448   1.540       .  S
C1447      C1453   1.524       .  S
C1447      C1451   1.547       .  S
C1447      C1460   1.523       .  S
C1448      C1449   1.366       .  D
C1449      C1450   1.542       .  S
C1449      C1973   1.481   1_565  S
C1450      C1454   1.545       .  S
C1450      C1452   1.557       .  S
C1450      H1456   1.109       .  S
C1451      H1457   1.085       .  S
C1451      C1452   1.383       .  D
C1452      C1893   1.509       .  S
C1453      H1458   1.073       .  S
C1453      C1454   1.352       .  D
O1459      C1474   1.264       .  A
O1459     Al1467   1.914       .  S
C1460      O1470   1.263       .  A
C1460      O1461   1.269       .  A
O1462      C1464   1.260   1_655  A
O1462     Al3815   1.893       .  S
Al1463     O3814   1.896       .  S
Al1463     O3825   1.932       .  S
Al1463     O2648   1.785       .  S
C1464      O1477   1.273       .  A
O1465      C1475   1.268   1_545  A
O1466      C1479   1.272   1_655  A
O1466     Al3828   1.946       .  S
Al1467     O1477   1.960       .  S
O1468      C1475   1.268       .  A
O1468     Al3828   1.929   1_455  S
O1469      C1478   1.275       .  A
O1469     Al1476   1.972       .  S
O1470     Al1476   1.928       .  S
O1471      C1478   1.261   1_545  A
O1472     Al2639   1.788       .  S
O1472     Al3828   1.788   1_545  S
O1473      C1474   1.266       .  A
O1473     Al3815   1.930   1_455  S
Al1476     O3818   1.944       .  S
Al1476     O3820   1.934       .  S
Al1476     O3824   1.787   1_565  S
C1479      O1480   1.269       .  A
C1481      C1482   1.522       .  S
C1481      C1487   1.523       .  S
C1481      C1485   1.562       .  S
C1482      H1489   1.087       .  S
C1482      C1483   1.358       .  D
C1483      C1484   1.567       .  S
C1483      C1858   1.525       .  S
C1484      C1488   1.556       .  S
C1484      C1486   1.512       .  S
C1484      H1490   1.099       .  S
C1485      H1491   1.085       .  S
C1485      C1486   1.387       .  D
C1486      C1842   1.489       .  S
C1487      H1492   1.081       .  S
C1487      C1488   1.364       .  D
C1488      C1518   1.503       .  S
C1493      C1494   1.532       .  S
C1493      C1499   1.545       .  S
C1493      C1497   1.538       .  S
C1494      H1501   1.069       .  S
C1494      C1495   1.357       .  D
C1495      C1496   1.512       .  S
C1495      C1533   1.482       .  S
C1496      C1500   1.537       .  S
C1496      C1498   1.534       .  S
C1496      H1502   1.108       .  S
C1497      H1503   1.085       .  S
C1497      C1498   1.374       .  D
C1498      C1813   1.468       .  S
C1499      H1504   1.083       .  S
C1499      C1500   1.384       .  D
C1500      C1826   1.506       .  S
C1505      C1506   1.537       .  S
C1505      C1511   1.526       .  S
C1505      C1509   1.540       .  S
C1506      H1513   1.087       .  S
C1506      C1507   1.365       .  D
C1507      C1508   1.540       .  S
C1507      C1794   1.490       .  S
C1508      C1512   1.563       .  S
C1508      C1510   1.576       .  S
C1508      H1514   1.096       .  S
C1509      H1515   1.082       .  S
C1509      C1510   1.392       .  D
C1510      C1778   1.541       .  S
C1511      H1516   1.077       .  S
C1511      C1512   1.360       .  D
C1512      C1522   1.525       .  S
O1517      C1532   1.277       .  A
O1517     Al1525   1.938       .  S
C1518      O1528   1.257       .  A
C1518      O1519   1.269       .  A
O1519     Al1521   1.943       .  S
O1520      C1522   1.267       .  A
O1520     Al1521   1.978       .  S
Al1521     O1529   1.929       .  S
Al1521     O1531   1.959       .  S
Al1521     O1530   1.794       .  S
C1522      O1535   1.260       .  A
O1523      C1533   1.275       .  A
O1523     Al1525   1.919       .  S
O1524      C1537   1.258       .  A
O1524     Al1534   1.928       .  S
Al1525     O1538   1.934       .  S
Al1525     O1535   1.940       .  S
Al1525     O1530   1.798       .  S
O1526      C1533   1.276       .  A
O1526     Al1534   1.946       .  S
O1527      C1536   1.268       .  A
O1527     Al1534   1.942       .  S
O1528     Al1534   1.910       .  S
O1529      C1536   1.266       .  A
O1530     Al1534   1.800       .  S
O1531      C1532   1.278       .  A
C1537      O1538   1.256       .  A
C1539      N1540   1.361       .  A
C1539      N1544   1.365       .  A
C1539      C1781   1.491       .  S
N1540      C1541   1.364       .  A
C1541      C1749   1.477       .  S
N1542      C1543   1.348       .  A
C1543      C1762   1.492       .  S
C1545      N1546   1.359       .  A
C1545      N1550   1.370       .  A
C1545      C1861   1.511       .  S
N1546      C1547   1.356       .  A
C1547      N1548   1.357       .  A
C1547      C1765   1.499       .  S
N1548      C1549   1.357       .  A
C1549      N1550   1.374       .  A
C1549      C1730   1.502       .  S
C1551      N1552   1.350       .  A
N1552      C1553   1.337       .  A
C1553      N1554   1.350       .  A
C1553      C1714   1.451       .  S
N1554      C1555   1.351       .  A
C1555      C1698   1.499       .  S
C1557      N1558   1.351   1_655  A
C1557      N3914   1.359       .  A
C1557      C4197   1.461       .  S
N1558      C1559   1.345       .  A
C1559      N1560   1.354       .  A
C1559      C1717   1.444       .  S
N1560      C1561   1.355   1_455  A
C1561      N3914   1.364       .  A
C1561      C1682   1.477       .  S
N1562      C3909   1.360       .  A
N1562      C3913   1.366       .  A
C1563      N1564   1.359       .  A
C1563      N1568   1.362       .  A
C1563      C1829   1.483       .  S
N1564      C1565   1.352       .  A
C1565      N1566   1.348       .  A
C1565      C1669   1.462       .  S
N1566      C1567   1.354       .  A
C1567      N1568   1.359       .  A
C1567      C1650   1.460       .  S
C1569      N1570   1.347       .  A
C1569      N1574   1.375       .  A
C1569      C1797   1.483       .  S
N1570      C3923   1.344       .  A
C1571      N3922   1.344       .  A
C1571      N1572   1.337       .  A
C1571      C1666   1.442       .  S
N1572      C3925   1.352       .  A
C1573      N3924   1.352       .  A
C1573      N1574   1.377       .  A
C1573      C1634   1.484       .  S
C1575      C1576   1.528       .  S
C1575      C1581   1.531       .  S
C1575      C1579   1.540       .  S
C1575      C1627   1.531       .  S
C1576      H1583   1.088       .  S
C1576      C1577   1.359       .  D
C1577      C1578   1.555       .  S
C1577      C1653   1.481       .  S
C1578      C1582   1.553       .  S
C1578      C1580   1.570       .  S
C1578      H1584   1.105       .  S
C1579      H1585   1.080       .  S
C1579      C1580   1.386       .  D
C1580      C1733   1.530       .  S
C1581      H1586   1.068       .  S
C1581      C1582   1.357       .  D
C1587      C1588   1.540       .  S
C1587      C1593   1.524       .  S
C1587      C1591   1.530       .  S
C1587      C1612   1.515       .  S
C1588      H1595   1.081       .  S
C1588      C1589   1.373       .  D
C1589      C1746   1.503       .  S
C1590      C1594   1.543       .  S
C1590      H1596   1.107       .  S
C1591      H1597   1.083       .  S
C1591      C1592   1.374       .  D
C1592      C1701   1.502       .  S
C1593      H1598   1.075       .  S
C1599      C1600   1.540       .  S
C1599      C1605   1.530       .  S
C1599      C1603   1.547       .  S
C1599      C1616   1.527       .  S
C1600      H1607   1.084       .  S
C1600      C1601   1.381       .  D
C1601      C3954   1.552       .  S
C1601      C1685   1.489       .  S
C1602      C3953   1.554   1_455  S
C1602      C1606   1.545       .  S
C1602      C3956   1.540   1_455  S
C1602      H1608   1.111       .  S
C1603      H1609   1.086       .  S
C1603      C1604   1.357       .  D
C1604      C3954   1.538       .  S
C1604      C1637   1.483       .  S
C1605      H1610   1.080       .  S
C1605      C3958   1.365       .  D
C1606      C3957   1.366   1_455  D
O1611      C1626   1.271       .  A
O1611     Al1619   1.960       .  S
C1612      O1622   1.254       .  A
C1612      O1613   1.263       .  A
O1613     Al1615   1.911   1_556  S
O1614      C1616   1.259       .  A
O1614     Al1615   1.883   1_556  S
Al1615     O1623   1.897       .  S
Al1615     O1625   1.914       .  S
Al1615     O1624   1.797       .  S
C1616      O1629   1.270       .  A
O1617      C1627   1.262       .  A
O1617     Al1619   1.929   1_556  S
O1618      C1631   1.254       .  A
O1618     Al1628   1.872       .  S
Al1619     O1632   1.984       .  S
Al1619     O1629   1.963   1_554  S
Al1619     O1624   1.805       .  S
O1620      C1627   1.271       .  A
O1620     Al1628   1.928   1_556  S
O1621      C1630   1.268       .  A
O1621     Al1628   1.938       .  S
O1622     Al1628   1.897   1_556  S
O1623      C1630   1.259       .  A
O1624     Al1628   1.795       .  S
O1625      C1626   1.261       .  A
C1631      O1632   1.281       .  A
C1633      C1634   1.395       .  A
C1633      C1638   1.409       .  A
C1633      H1640   1.082       .  S
C1634      C1635   1.423       .  A
C1635      C3994   1.500       .  S
C1635      C1636   1.393       .  A
C1636      C1637   1.389       .  A
C1636      H3993   1.085       .  S
C1637      C1638   1.420       .  A
C1638      C1639   1.499       .  S
C1639      H1643   1.107       .  S
C1639      H1644   1.103       .  S
C1639      H1645   1.107       .  S
H1641      C3988   1.085       .  S
C1642      C3987   1.500       .  S
C1642      H1646   1.110       .  S
C1642      H3999   1.105       .  S
C1642      H1648   1.110       .  S
H1647      C3994   1.103       .  S
C1649      C1650   1.406       .  A
C1649      C1654   1.400       .  A
C1649      H1656   1.081       .  S
C1650      C1651   1.398       .  A
C1651      C1658   1.496       .  S
C1651      C1652   1.397       .  A
C1652      C1653   1.410       .  A
C1652      H1657   1.082       .  S
C1653      C1654   1.400       .  A
C1654      C1655   1.500       .  S
C1655      H1659   1.108       .  S
C1655      H1660   1.110       .  S
C1655      H1661   1.110       .  S
C1658      H1662   1.110       .  S
C1658      H1663   1.108       .  S
C1658      H1664   1.111       .  S
C1665      C1666   1.404       .  A
C1665      C1670   1.409       .  A
C1665      H1672   1.084       .  S
C1666      C1667   1.403       .  A
C1667      C1674   1.510       .  S
C1667      C1668   1.367       .  A
C1668      C1669   1.401       .  A
C1668      H1673   1.082       .  S
C1669      C1670   1.410       .  A
C1670      C1671   1.497       .  S
C1671      H1675   1.101       .  S
C1671      H1676   1.107       .  S
C1671      H1677   1.110       .  S
C1674      H4030   1.108       .  S
C1674      H4031   1.100       .  S
C1674      H1680   1.110       .  S
H1678      C4026   1.109       .  S
H1679      C4026   1.099       .  S
C1681      C1682   1.406   1_455  A
C1681      C1686   1.403       .  A
C1681      H1688   1.084       .  S
C1682      C4035   1.404       .  A
C1683      C1690   1.504       .  S
C1683      C4034   1.405       .  A
C1683      C1684   1.405       .  A
C1684      C1685   1.406       .  A
C1684      H1689   1.077       .  S
C1685      C4038   1.413       .  A
C1686      C1687   1.507       .  S
C1686      C4037   1.412   1_455  A
C1687      H1691   1.111       .  S
C1687      H1692   1.110       .  S
C1687      H1693   1.109       .  S
C1690      H1694   1.110       .  S
C1690      H1695   1.108       .  S
C1690      H1696   1.110       .  S
C1697      C1702   1.412       .  A
C1697      H1704   1.084       .  S
C1698      C1699   1.431       .  A
C1699      C1706   1.511       .  S
C1699      C1700   1.402       .  A
C1700      H1705   1.085       .  S
C1701      C1702   1.426       .  A
C1702      C1703   1.503       .  S
C1703      H1707   1.111       .  S
C1703      H1708   1.105       .  S
C1703      H1709   1.109       .  S
C1706      H1710   1.108       .  S
C1706      H1711   1.107       .  S
C1706      H1712   1.110       .  S
C1713      C1714   1.405       .  A
C1713      C1718   1.409       .  A
C1713      H1720   1.084       .  S
C1714      C1715   1.411       .  A
C1715      C1722   1.509       .  S
C1715      C1716   1.362       .  A
C1716      C1717   1.386       .  A
C1716      H1721   1.082       .  S
C1717      C1718   1.414       .  A
C1718      C1719   1.501       .  S
C1719      H1723   1.110       .  S
C1719      H1724   1.107       .  S
C1719      H1725   1.108       .  S
C1722      H1726   1.106       .  S
C1722      H1727   1.100       .  S
C1722      H1728   1.110       .  S
C1729      C1730   1.407       .  A
C1729      C1734   1.410       .  A
C1729      H1736   1.084       .  S
C1730      C1731   1.410       .  A
C1731      C1738   1.501       .  S
C1731      C1732   1.412       .  A
C1732      C1733   1.414       .  A
C1732      H1737   1.076       .  S
C1733      C1734   1.426       .  A
C1734      C1735   1.507       .  S
C1735      H1739   1.111       .  S
C1735      H1740   1.109       .  S
C1735      H1741   1.108       .  S
C1738      H1742   1.105       .  S
C1738      H1743   1.110       .  S
C1738      H1744   1.106       .  S
C1745      C1746   1.412       .  A
C1745      C1750   1.399       .  A
C1746      C1747   1.416       .  A
C1747      C1754   1.507       .  S
C1747      C1748   1.400       .  A
C1748      C1749   1.407       .  A
C1748      H1753   1.083       .  S
C1749      C1750   1.407       .  A
C1751      H1755   1.109       .  S
C1751      H1756   1.109       .  S
C1751      H1757   1.106       .  S
C1754      H1758   1.109       .  S
C1754      H1759   1.111       .  S
C1754      H1760   1.111       .  S
C1761      C1762   1.406       .  A
C1761      C1766   1.402   1_545  A
C1761      H1768   1.075       .  S
C1762      C1763   1.429   1_545  A
C1763      C1770   1.504   1_565  S
C1763      C1764   1.407       .  A
C1764      C1765   1.401       .  A
C1764      H1769   1.084       .  S
C1765      C1766   1.408       .  A
C1766      C1767   1.497       .  S
C1767      H1771   1.111   1_565  S
C1767      H1772   1.099       .  S
C1767      H1773   1.110       .  S
C1770      H1774   1.110   1_545  S
C1770      H1775   1.104       .  S
C1770      H1776   1.110       .  S
C1777      C1778   1.419       .  A
C1777      C1782   1.410       .  A
C1777      H1784   1.079       .  S
C1778      C1779   1.432       .  A
C1779      C1786   1.505       .  S
C1779      C1780   1.415       .  A
C1780      C1781   1.399       .  A
C1780      H1785   1.084       .  S
C1781      C1782   1.405       .  A
C1782      C1783   1.505       .  S
C1783      H1787   1.110       .  S
C1783      H1789   1.105       .  S
C1786      H1790   1.107       .  S
C1786      H1791   1.106       .  S
C1786      H1792   1.111       .  S
C1793      C1794   1.404       .  A
C1793      C1798   1.397       .  A
C1793      H1800   1.084       .  S
C1794      C1795   1.398       .  A
C1795      C1802   1.502       .  S
C1795      C1796   1.410       .  A
C1796      C1797   1.403       .  A
C1796      H1801   1.068       .  S
C1797      C1798   1.416       .  A
C1798      C1799   1.493       .  S
C1799      H1803   1.110       .  S
C1799      H1804   1.099       .  S
C1799      H1805   1.110       .  S
C1802      H1806   1.104       .  S
C1802      H1807   1.110       .  S
C1802      H1808   1.099       .  S
C1809      C1810   1.404       .  A
C1809      C1814   1.404       .  A
C1809      H1816   1.084       .  S
C1810      C1811   1.423       .  A
C1811      C1812   1.394       .  A
C1812      C1813   1.392       .  A
C1812      H1817   1.085       .  S
C1813      C1814   1.414       .  A
C1814      C1815   1.508       .  S
C1815      H1819   1.109       .  S
C1815      H1820   1.110       .  S
C1815      H1821   1.104       .  S
C1818      H1822   1.110       .  S
C1818      H1824   1.108   1_565  S
C1825      C1826   1.418       .  A
C1825      C1830   1.398       .  A
C1825      H1832   1.075       .  S
C1826      C1827   1.414       .  A
C1827      C1834   1.508       .  S
C1827      C1828   1.400       .  A
C1828      C1829   1.412       .  A
C1828      H1833   1.084       .  S
C1829      C1830   1.405       .  A
C1830      C1831   1.510       .  S
C1831      H1835   1.110       .  S
C1831      H1836   1.109       .  S
C1831      H1837   1.111       .  S
C1834      H1838   1.111       .  S
C1834      H1839   1.107       .  S
C1834      H1840   1.111       .  S
C1841      C1842   1.397       .  A
C1841      C4198   1.387       .  A
C1841      H4200   1.083       .  S
C1842      C1843   1.430       .  A
C1843      C1850   1.510       .  S
C1843      C1844   1.407       .  A
C1844      C1845   1.397       .  A
C1844      H1849   1.085       .  S
C1845      C3909   1.461       .  S
C1845      C4198   1.407       .  A
C1846      C1847   1.499   1_655  S
C1846      C4193   1.390       .  A
C1846      C4197   1.408       .  A
C1847      H1851   1.102       .  S
C1847      H1852   1.110       .  S
C1847      H1853   1.108       .  S
H1848      C4193   1.083       .  S
C1850      H1854   1.106       .  S
C1850      H1855   1.110       .  S
C1850      H1856   1.107       .  S
C1857      C1858   1.412       .  A
C1857      C1862   1.398       .  A
C1857      H1864   1.081       .  S
C1858      C1859   1.407       .  A
C1859      C1866   1.489       .  S
C1859      C1860   1.421       .  A
C1860      C1861   1.412       .  A
C1860      H1865   1.084       .  S
C1861      C1862   1.425       .  A
C1862      C1863   1.511       .  S
C1863      H1867   1.111       .  S
C1863      H1868   1.108       .  S
C1863      H1869   1.101       .  S
C1866      H1870   1.105       .  S
C1866      H1871   1.108       .  S
C1866      H1872   1.102       .  S
C1873      C1874   1.388       .  A
C1873      C1878   1.393       .  A
C1873      H1880   1.086       .  S
C1874      C1875   1.407       .  A
C1875      C1882   1.503       .  S
C1875      C1876   1.394       .  A
C1876      C1877   1.399       .  A
C1876      H1881   1.084       .  S
C1877      C1878   1.433       .  A
C1878      C1879   1.514       .  S
C1879      H1883   1.110       .  S
C1879      H1884   1.106       .  S
C1879      H1885   1.101       .  S
C1882      H1886   1.110       .  S
C1882      H1887   1.110       .  S
C1882      H1888   1.109       .  S
C1889      C1890   1.402       .  A
C1889      C1894   1.407       .  A
C1889      H1896   1.080       .  S
C1890      C1891   1.410       .  A
C1891      C1898   1.507       .  S
C1891      C1892   1.416       .  A
C1892      C1893   1.414       .  A
C1892      H1897   1.083       .  S
C1893      C1894   1.418       .  A
C1894      C1895   1.508       .  S
C1895      H1899   1.110       .  S
C1895      H1900   1.106       .  S
C1895      H1901   1.110       .  S
C1898      H1902   1.109       .  S
C1898      H1903   1.110       .  S
C1898      H1904   1.108       .  S
C1905      C1906   1.417       .  A
C1905      C1910   1.407       .  A
C1905      H1912   1.083       .  S
C1906      C1907   1.426       .  A
C1907      C1914   1.508       .  S
C1907      C1908   1.404       .  A
C1908      C1909   1.397       .  A
C1908      H1913   1.083       .  S
C1909      C1910   1.405       .  A
C1910      C1911   1.500       .  S
C1911      H1915   1.111       .  S
C1911      H1916   1.110       .  S
C1911      H1917   1.110       .  S
C1914      H1918   1.110       .  S
C1914      H1919   1.107       .  S
C1914      H1920   1.111       .  S
C1921      C1922   1.396       .  A
C1921      C1926   1.408       .  A
C1921      H4280   1.082       .  S
C1922      C1923   1.407   1_655  A
C1923      C1930   1.507       .  S
C1923      C1924   1.403       .  A
C1924      C1925   1.412       .  A
C1924      H1929   1.082       .  S
C1925      C1926   1.432   1_455  A
C1926      C4279   1.509       .  S
C1927      C4278   1.509       .  S
C1927      H1931   1.110       .  S
C1927      H1932   1.109       .  S
C1927      H1933   1.104       .  S
H1928      C4273   1.082       .  S
C1930      H1934   1.108       .  S
C1930      H1935   1.109       .  S
C1930      H1936   1.110       .  S
C1937      C4290   1.415       .  A
C1937      C4294   1.398       .  A
C1937      H1944   1.083       .  S
C1938      C4289   1.414       .  A
C1938      C1939   1.413   1_655  A
C1939      C1946   1.507       .  S
C1939      C1940   1.400       .  A
C1940      C1941   1.408       .  A
C1940      H1945   1.075       .  S
C1941      C1942   1.411   1_455  A
C1942      C4295   1.507       .  S
C1942      C4289   1.399       .  A
C1943      C4294   1.507       .  S
C1943      H1947   1.110       .  S
C1943      H1948   1.110       .  S
C1943      H4301   1.109       .  S
C1946      H1950   1.110       .  S
C1946      H1951   1.109       .  S
C1946      H1952   1.108       .  S
H1949      C4295   1.109       .  S
C1953      C1954   1.409       .  A
C1953      C1958   1.414       .  A
C1953      H1960   1.079       .  S
C1954      C3753   1.497       .  S
C1954      C4307   1.399       .  A
C1955      C1962   1.501       .  S
C1955      C4306   1.400       .  A
C1955      C1956   1.402       .  A
C1956      C4309   1.415       .  A
C1956      H1961   1.081       .  S
C1957      C4308   1.415       .  A
C1957      C1958   1.428       .  A
C1958      C1959   1.506       .  S
C1959      H1963   1.108       .  S
C1959      H1964   1.109       .  S
C1959      H1965   1.111       .  S
C1962      H1966   1.108       .  S
C1962      H1967   1.108       .  S
C1962      H1968   1.111       .  S
C1969      C1970   1.405       .  A
C1969      C1974   1.396   1_565  A
C1970      C1971   1.409       .  A
C1971      C1978   1.505   1_565  S
C1971      C1972   1.405   1_565  A
C1972      C1973   1.411       .  A
C1972      H1977   1.084       .  S
C1973      C1974   1.405       .  A
C1974      C1975   1.508       .  S
C1975      H1980   1.109   1_545  S
C1978      H1982   1.103   1_545  S
C1978      H1983   1.105       .  S
C1978      H1984   1.110       .  S
C1985      C1986   1.402       .  A
C1985      C1990   1.417       .  A
C1986      C1987   1.423       .  A
C1987      C1994   1.506       .  S
C1987      C1988   1.401       .  A
C1988      C1989   1.397       .  A
C1988      H1993   1.085       .  S
C1989      C1990   1.424       .  A
C1991      H1995   1.110       .  S
C1991      H1996   1.102       .  S
C1991      H1997   1.109       .  S
C1994      H1998   1.107       .  S
C1994      H1999   1.106       .  S
C1994      H2000   1.111       .  S
C2001      C2006   1.373       .  A
C2001      H2008   1.080       .  S
C2002      C2003   1.409       .  A
C2003      C2010   1.497       .  S
C2003      C2004   1.413       .  A
C2004      C2005   1.406       .  A
C2004      H2009   1.084       .  S
C2006      C2007   1.516       .  S
C2007      H2011   1.109       .  S
C2007      H2012   1.103       .  S
C2007      H2013   1.109       .  S
C2010      H2014   1.109       .  S
C2010      H2015   1.110       .  S
C2010      H2016   1.110       .  S
C2017      C2018   1.403       .  A
C2017      C2022   1.384       .  A
C2017      H2024   1.074       .  S
C2018      C2019   1.414       .  A
C2019      C2026   1.505       .  S
C2019      C2020   1.413       .  A
C2020      C2021   1.411       .  A
C2020      H2025   1.084       .  S
C2021      C2022   1.412       .  A
C2022      C2023   1.515       .  S
C2023      H2027   1.108       .  S
C2023      H2028   1.107       .  S
C2023      H2029   1.109       .  S
C2026      H2030   1.108       .  S
C2026      H2031   1.104       .  S
C2026      H2032   1.111       .  S
C2033      C2038   1.408       .  A
C2033      H2040   1.082       .  S
C2034      C2035   1.403       .  A
C2035      C2042   1.506       .  S
C2035      C2036   1.406       .  A
C2036      H2041   1.083       .  S
C2037      C2038   1.412       .  A
C2038      C2039   1.506       .  S
C2039      H2043   1.111       .  S
C2039      H2044   1.103       .  S
C2039      H2045   1.108       .  S
C2042      H2046   1.109       .  S
C2042      H2047   1.110       .  S
C2042      H2048   1.110       .  S
C2049      C2050   1.396       .  A
C2049      C2054   1.395       .  A
C2049      H2056   1.084       .  S
C2050      C2051   1.426       .  A
C2051      C2058   1.507       .  S
C2051      C2052   1.408       .  A
C2052      C2053   1.398       .  A
C2052      H2057   1.084       .  S
C2053      C2054   1.412       .  A
C2054      C2055   1.496       .  S
C2055      H2059   1.109       .  S
C2055      H2060   1.102       .  S
C2055      H2061   1.109       .  S
C2058      H2062   1.107       .  S
C2058      H4415   1.106       .  S
C2058      H2064   1.111       .  S
H2063      C4410   1.106       .  S
C2065      C2070   1.403       .  A
C2065      H2072   1.075       .  S
C2066      C2067   1.400       .  A
C2067      C2074   1.506       .  S
C2067      C2068   1.399       .  A
C2068      C2069   1.412       .  A
C2068      H2073   1.080       .  S
C2070      C2071   1.508       .  S
C2071      H2075   1.110       .  S
C2071      H2076   1.108       .  S
C2071      H2077   1.106   1_545  S
C2074      H2078   1.110       .  S
C2074      H2079   1.110       .  S
C2074      H2080   1.110       .  S
C2081      C2082   1.411       .  A
C2081      C2086   1.413       .  A
C2081      H2088   1.083       .  S
C2082      C2083   1.411       .  A
C2083      C2090   1.507       .  S
C2083      C2084   1.404       .  A
C2084      C2085   1.413       .  A
C2084      H2089   1.079       .  S
C2085      C2086   1.412       .  A
C2086      C2087   1.494       .  S
C2087      H2091   1.106       .  S
C2087      H2092   1.108       .  S
C2087      H2093   1.106       .  S
C2090      H2094   1.107       .  S
C2090      H2095   1.111       .  S
C2090      H2096   1.111       .  S
C2097      C2098   1.403       .  A
C2097      C2102   1.405       .  A
C2097      H2104   1.081       .  S
C2098      C4451   1.406       .  A
C2099      C2106   1.504   1_655  S
C2099      C4450   1.407       .  A
C2099      C2100   1.408       .  A
C2100      C4453   1.406       .  A
C2100      H2105   1.083       .  S
C2101      C3759   1.474       .  S
C2101      C4452   1.406       .  A
C2101      C2102   1.406       .  A
C2102      C2103   1.505       .  S
C2103      H2107   1.107       .  S
C2103      H2108   1.110       .  S
C2103      H2109   1.110       .  S
C2106      H2110   1.110       .  S
C2106      H2111   1.110       .  S
C2106      H2112   1.110   1_455  S
C2113      C2114   1.382       .  A
C2113      C2118   1.404       .  A
C2113      H2120   1.077       .  S
C2114      C2115   1.406       .  A
C2115      C2122   1.502       .  S
C2115      C2116   1.406       .  A
C2116      C2117   1.419       .  A
C2116      H2121   1.083       .  S
C2117      C2118   1.440       .  A
C2118      C2119   1.487       .  S
C2119      H2123   1.110       .  S
C2119      H2124   1.108       .  S
C2119      H2125   1.080       .  S
C2122      H2126   1.109       .  S
C2122      H2127   1.110       .  S
C2122      H2128   1.110       .  S
C2129      C2130   1.411       .  A
C2129      C2134   1.388       .  A
C2129      H2136   1.072       .  S
C2130      C2131   1.408       .  A
C2131      C2138   1.508   1_455  S
C2131      C2132   1.396       .  A
C2132      C2133   1.409       .  A
C2132      H4489   1.085   1_455  S
C2133      C2134   1.398       .  A
C2134      C2135   1.510       .  S
C2135      H2139   1.109       .  S
C2135      H2140   1.109       .  S
C2135      H2141   1.110       .  S
H2137      C4484   1.085       .  S
C2138      H2142   1.108       .  S
C2138      H2143   1.110       .  S
C2138      H4496   1.111       .  S
H2144      C4490   1.111       .  S
C2145      C2146   1.395       .  A
C2145      C2150   1.412   1_545  A
C2145      H2152   1.079       .  S
C2146      C2147   1.421       .  A
C2147      C2148   1.420       .  A
C2148      C2149   1.406   1_545  A
C2148      H2153   1.083       .  S
C2149      C2150   1.430       .  A
C2150      C2151   1.505       .  S
C2151      H2155   1.106       .  S
C2151      H2156   1.109   1_565  S
C2151      H2157   1.093       .  S
C2154      H2158   1.105       .  S
C2154      H2159   1.109       .  S
C2154      H2160   1.111       .  S
C2161      C2162   1.401       .  A
C2161      C2166   1.406       .  A
C2161      H2168   1.084       .  S
C2162      C2163   1.404       .  A
C2163      C2170   1.509       .  S
C2163      C2164   1.401       .  A
C2164      C2165   1.414       .  A
C2164      H2169   1.077       .  S
C2165      C2166   1.420       .  A
C2166      C2167   1.505       .  S
C2167      H2171   1.110       .  S
C2167      H2172   1.109       .  S
C2167      H2173   1.102       .  S
C2170      H2174   1.111       .  S
C2170      H2175   1.111       .  S
C2170      H2176   1.111       .  S
C2177      C2178   1.411       .  A
C2177      C2182   1.413       .  A
C2177      H2184   1.079       .  S
C2178      C2179   1.413       .  A
C2179      C2186   1.505   1_455  S
C2179      C2180   1.405   1_455  A
C2180      C2181   1.402   1_655  A
C2180      H2185   1.085       .  S
C2181      C2182   1.410       .  A
C2182      C2183   1.505       .  S
C2183      H2187   1.110       .  S
C2183      H2188   1.110       .  S
C2183      H2189   1.109       .  S
C2186      H2190   1.105       .  S
C2186      H4543   1.110       .  S
C2186      H4544   1.108       .  S
H2191      C4538   1.110       .  S
H2192      C4538   1.108       .  S
C2193      C2194   1.399       .  A
C2193      C2198   1.398       .  A
C2193      H2200   1.084       .  S
C2194      C3603   1.482       .  S
C2194      C2195   1.411       .  A
C2195      C4554   1.504       .  S
C2195      C2196   1.401       .  A
C2196      C2197   1.409       .  A
C2196      H2201   1.084       .  S
C2197      C2198   1.415       .  A
C2198      C2199   1.491       .  S
C2199      H2203   1.111   1_565  S
C2199      H2204   1.110       .  S
C2199      H2205   1.102       .  S
C2202      C4547   1.504   1_455  S
C2202      H2206   1.111   1_455  S
C2202      H2207   1.111       .  S
C2202      H2208   1.110       .  S
C2209      C2210   1.404   1_545  A
C2209      C2214   1.400       .  A
C2209      H2216   1.085       .  S
C2210      C2211   1.429       .  A
C2211      C2218   1.512       .  S
C2211      C2212   1.401       .  A
C2212      C2213   1.394       .  A
C2212      H2217   1.085       .  S
C2213      C2214   1.411   1_565  A
C2214      C2215   1.506       .  S
C2215      H2219   1.111       .  S
C2215      H2220   1.108       .  S
C2215      H2221   1.110       .  S
C2218      H2222   1.105       .  S
C2218      H2223   1.108       .  S
C2218      H2224   1.111       .  S
C2225      C2226   1.408       .  A
C2225      C2230   1.397       .  A
C2225      H2232   1.084       .  S
C2226      C2227   1.416       .  A
C2227      C2234   1.507       .  S
C2227      C2228   1.404       .  A
C2228      C2229   1.407       .  A
C2228      H2233   1.084       .  S
C2229      C2230   1.406       .  A
C2230      C2231   1.506       .  S
C2231      H2235   1.110       .  S
C2231      H2236   1.104       .  S
C2231      H2237   1.108       .  S
C2234      H2238   1.110       .  S
C2234      H2239   1.110       .  S
C2234      H2240   1.111       .  S
C2241      C2242   1.407       .  A
C2241      C2246   1.399       .  A
C2241      H2248   1.084       .  S
C2242      C2243   1.420       .  A
C2243      C2250   1.510       .  S
C2243      C2244   1.404       .  A
C2244      C2245   1.405       .  A
C2244      H2249   1.084       .  S
C2245      C2246   1.414       .  A
C2246      C2247   1.504       .  S
C2247      H2251   1.107       .  S
C2247      H2252   1.111       .  S
C2247      H2253   1.109       .  S
C2250      H2254   1.104       .  S
C2250      H2255   1.110       .  S
C2250      H2256   1.110       .  S
C2257      C2262   1.402       .  A
C2257      H2264   1.086       .  S
C2258      C2259   1.412       .  A
C2259      C2266   1.494       .  S
C2259      C2260   1.417       .  A
C2260      C2261   1.411   1_565  A
C2260      H2265   1.083       .  S
C2262      C2263   1.495       .  S
C2263      H2267   1.104       .  S
C2263      H2268   1.102       .  S
C2263      H2269   1.107       .  S
C2266      H2270   1.110       .  S
C2266      H2271   1.102       .  S
C2266      H2272   1.106       .  S
C2273      C2274   1.404       .  A
C2273      C2278   1.402       .  A
C2273      H2280   1.074       .  S
C2274      C2275   1.406       .  A
C2275      C2282   1.504   1_565  S
C2275      C2276   1.406   1_565  A
C2276      C2277   1.407   1_545  A
C2276      H2281   1.084       .  S
C2277      C2278   1.407       .  A
C2278      C2279   1.507       .  S
C2279      H2283   1.111       .  S
C2279      H2284   1.110       .  S
C2279      H2285   1.111       .  S
C2282      H2286   1.110   1_545  S
C2282      H2288   1.110       .  S
C2289      C2290   1.403       .  A
C2289      C2294   1.394       .  A
C2289      H2296   1.083       .  S
C2290      C2291   1.415   1_455  A
C2291      C4650   1.507       .  S
C2291      C2292   1.407       .  A
C2292      C2293   1.402   1_655  A
C2292      H4649   1.076       .  S
C2293      C2294   1.400       .  A
C2294      C2295   1.494       .  S
C2295      H2299   1.105       .  S
C2295      H2300   1.108       .  S
C2295      H2301   1.106       .  S
H2297      C4644   1.074       .  S
C2298      C4643   1.507       .  S
C2298      H2302   1.108       .  S
C2298      H2303   1.108       .  S
C2298      H2304   1.110       .  S
C2305      C4658   1.406       .  A
C2305      C2310   1.411       .  A
C2305      H2312   1.084       .  S
C2306      C3671   1.475       .  S
C2306      C4657   1.406   1_455  A
C2306      C2307   1.404       .  A
C2307      C2314   1.504       .  S
C2307      C2308   1.404       .  A
C2308      C2309   1.406       .  A
C2308      H2313   1.082       .  S
C2309      C4662   1.407   1_455  A
C2310      C2311   1.505       .  S
C2310      C4661   1.407       .  A
C2311      H2315   1.111       .  S
C2311      H2316   1.110       .  S
C2311      H2317   1.108       .  S
C2314      H2318   1.110       .  S
C2314      H2319   1.107       .  S
C2314      H2320   1.110       .  S
C2321      C2322   1.398       .  A
C2321      C2326   1.396       .  A
C2321      H2328   1.084       .  S
C2322      C2323   1.423       .  A
C2323      C2330   1.510       .  S
C2323      C2324   1.401       .  A
C2324      C2325   1.394       .  A
C2324      H2329   1.084       .  S
C2325      C2326   1.409       .  A
C2326      C2327   1.503       .  S
C2327      H2331   1.108       .  S
C2327      H2332   1.109       .  S
C2327      H2333   1.110       .  S
C2330      H2334   1.099       .  S
C2330      H2335   1.108       .  S
C2330      H2336   1.111       .  S
C2337      C2338   1.411       .  A
C2337      C2342   1.408       .  A
C2337      H2344   1.081       .  S
C2338      C2339   1.401       .  A
C2339      C2346   1.503       .  S
C2339      C2340   1.400       .  A
C2340      C2341   1.407       .  A
C2340      H2345   1.080       .  S
C2341      C2342   1.402       .  A
C2342      C2343   1.500       .  S
C2343      H2347   1.108       .  S
C2343      H2348   1.110       .  S
C2343      H2349   1.111       .  S
C2346      H2350   1.110       .  S
C2346      H2351   1.107       .  S
C2346      H2352   1.105       .  S
C2353      C2354   1.530       .  S
C2353      C2359   1.526       .  S
C2353      C2357   1.537       .  S
C2353      C2405   1.514       .  S
C2354      H2361   1.086       .  S
C2354      C2355   1.369       .  D
C2355      C2356   1.568       .  S
C2355      C3514   1.491       .  S
C2356      C2360   1.552       .  S
C2356      C2358   1.535       .  S
C2356      H2362   1.109       .  S
C2357      H2363   1.085       .  S
C2357      C2358   1.361       .  D
C2358      C3498   1.482       .  S
C2359      H2364   1.076       .  S
C2359      C2360   1.362       .  D
C2360      C2807   1.507       .  S
C2365      C2366   1.550       .  S
C2365      C2371   1.541       .  S
C2365      C2369   1.530       .  S
C2365      C2390   1.537       .  S
C2366      H2373   1.085       .  S
C2366      C2367   1.375       .  D
C2367      C2368   1.532       .  S
C2367      C3466   1.493       .  S
C2368      C2370   1.554       .  S
C2369      H2375   1.087       .  S
C2369      C2370   1.367       .  D
C2370      C3485   1.488       .  S
C2371      H2376   1.077       .  S
C2372      C2802   1.504       .  S
C2377      C2378   1.561       .  S
C2377      C2383   1.526       .  S
C2377      C2381   1.543       .  S
C2377      C2394   1.536       .  S
C2378      H2385   1.084       .  S
C2378      C2379   1.392       .  D
C2379      C3556   1.553       .  S
C2379      C3434   1.506       .  S
C2380      C3555   1.555   1_545  S
C2380      C2384   1.529       .  S
C2380      C3558   1.528   1_545  S
C2380      H2386   1.111       .  S
C2381      H2387   1.087       .  S
C2381      C2382   1.364       .  D
C2382      C3556   1.524       .  S
C2382      C3450   1.473       .  S
C2383      H2388   1.074       .  S
C2383      C3560   1.354       .  D
C2384      C3559   1.354   1_545  D
C2384      C2806   1.487       .  S
O2389      C2404   1.269       .  A
O2389     Al2397   1.943       .  S
C2390      O2400   1.269       .  A
C2390      O2391   1.267       .  A
O2391     Al2393   1.911       .  S
O2392      C2394   1.267       .  A
O2392     Al2393   1.923       .  S
Al2393     O2401   1.917   1_554  S
Al2393     O2403   1.924   1_554  S
Al2393     O2402   1.788   1_554  S
C2394      O2407   1.263       .  A
O2395      C2405   1.265       .  A
O2395     Al2397   1.918   1_554  S
O2396      C2409   1.274       .  A
O2396     Al2406   1.969       .  S
Al2397     O2410   1.934       .  S
Al2397     O2407   1.954   1_556  S
Al2397     O2402   1.805       .  S
O2398      C2405   1.265       .  A
O2398     Al2406   1.917   1_554  S
O2399      C2408   1.275       .  A
O2399     Al2406   1.962       .  S
O2400     Al2406   1.959   1_554  S
O2401      C2408   1.263       .  A
O2402     Al2406   1.797       .  S
O2403      C2404   1.264       .  A
C2404      C2770   1.493       .  S
C2408      C2782   1.506       .  S
C2409      C2758   1.516       .  S
C2409      O2410   1.265       .  A
C2411      N2412   1.366       .  A
C2411      N2416   1.351       .  A
C2411      C3402   1.472       .  S
N2412      C2413   1.362       .  A
C2413      N2414   1.351       .  A
C2413      C3517   1.473       .  S
N2414      C2415   1.352       .  A
C2415      N2416   1.347       .  A
C2415      C3421   1.487       .  S
C2417      N2418   1.356       .  A
C2417      N2422   1.364       .  A
C2417      C3389   1.466       .  S
N2418      C2419   1.353       .  A
C2419      N2420   1.347       .  A
C2419      C4594   1.481       .  S
N2420      C2421   1.348       .  A
C2421      N2422   1.361       .  A
C2421      C3453   1.464       .  S
C2423      N2424   1.368       .  A
C2423      N2428   1.356       .  A
C2423      C3357   1.487       .  S
N2424      C2425   1.368       .  A
C2425      N2426   1.350       .  A
C2425      C3469   1.475       .  S
N2426      C2427   1.351       .  A
C2427      N2428   1.356       .  A
C2429      N2430   1.358       .  A
C2429      N2434   1.361       .  A
C2429      C3338   1.468       .  S
N2430      C2431   1.357       .  A
C2431      N2432   1.355       .  A
C2431      C3501   1.466       .  S
N2432      C2433   1.355       .  A
C2433      N2434   1.359       .  A
C2433      C3373   1.493       .  S
C2435      C2436   1.539       .  S
C2435      C2441   1.513       .  S
C2435      C2439   1.539       .  S
C2435      C2654   1.530       .  S
C2436      H2443   1.081       .  S
C2436      C2437   1.386       .  D
C2437      C2438   1.551       .  S
C2437      C3341   1.515       .  S
C2438      C2442   1.560       .  S
C2438      C2440   1.567       .  S
C2438      H2444   1.107       .  S
C2439      H2445   1.086       .  S
C2439      C2440   1.373       .  D
C2440      C3325   1.517       .  S
C2441      H2446   1.072       .  S
C2441      C2442   1.354       .  D
C2442      C2476   1.510       .  S
C2447      C2448   1.533       .  S
C2447      C2453   1.530       .  S
C2447      C2451   1.542       .  S
C2447      C2650   1.518       .  S
C2448      H2455   1.071       .  S
C2448      C2449   1.362       .  D
C2449      C2450   1.515       .  S
C2449      C2472   1.488       .  S
C2450      C2454   1.548       .  S
C2450      C2452   1.527       .  S
C2450      H2456   1.109       .  S
C2451      H2457   1.086       .  S
C2451      C2452   1.373       .  D
C2452      C3306   1.483       .  S
C2453      H2458   1.086       .  S
C2453      C2454   1.374       .  D
C2454      C3405   1.475       .  S
C2459      C2460   1.555       .  S
C2459      C2465   1.528       .  S
C2459      C2463   1.536       .  S
C2459      C2487   1.528       .  S
C2460      H2467   1.086       .  S
C2460      C2461   1.384       .  D
C2461      C2462   1.546       .  S
C2461      C3354   1.502       .  S
C2462      C2466   1.549       .  S
C2462      C2464   1.542       .  S
C2462      H2468   1.107       .  S
C2463      H2469   1.083       .  S
C2463      C2464   1.362       .  D
C2464      C3386   1.496       .  S
C2465      H2470   1.078       .  S
C2465      C2466   1.360       .  D
C2466      C2655   1.500       .  S
O2471      C2486   1.272       .  A
O2471     Al2479   1.960       .  S
C2472      O2482   1.270       .  A
C2472      O2473   1.263       .  A
O2473     Al2475   1.913       .  S
O2474      C2476   1.274       .  A
O2474     Al2475   1.965       .  S
Al2475     O2483   1.950       .  S
Al2475     O2485   1.919       .  S
Al2475     O2484   1.787       .  S
C2476      O2489   1.265       .  A
O2477      C2487   1.271       .  A
O2477     Al2479   1.938       .  S
O2478      C2491   1.270       .  A
O2478     Al2488   1.952       .  S
Al2479     O2492   1.932       .  S
Al2479     O2489   1.944       .  S
Al2479     O2484   1.787       .  S
O2480      C2487   1.266       .  A
O2480     Al2488   1.931       .  S
O2481      C2490   1.263       .  A
O2481     Al2488   1.917       .  S
O2482     Al2488   1.952       .  S
O2483      C2490   1.270       .  A
O2484     Al2488   1.791       .  S
O2485      C2486   1.262       .  A
C2486      C2630   1.494       .  S
C2490      C2618   1.488       .  S
C2491      C2606   1.499       .  S
C2491      O2492   1.267       .  A
C2493      N2494   1.359       .  A
C2493      C3309   1.452       .  S
C2495      N2496   1.359   1_455  A
N2496      C2497   1.367       .  A
C2497      N2498   1.344       .  A
C2497      C3290   1.491       .  S
C2499      N2500   1.373       .  A
C2499      N3680   1.354       .  A
C2499      C3322   1.508       .  S
N2500      C3677   1.377       .  A
C2501      N3676   1.374       .  A
C2501      N2502   1.364       .  A
C2501      C4613   1.521       .  S
N2502      C2503   1.361       .  A
C2503      N2504   1.360       .  A
C2503      C3293   1.507       .  S
N2504      C3675   1.356       .  A
C2505      C2506   1.532       .  S
C2505      C2511   1.534       .  S
C2505      C2509   1.548       .  S
C2505      C2542   1.523       .  S
C2506      C2507   1.370       .  D
C2507      C2508   1.556       .  S
C2507      C3274   1.486       .  S
C2508      C2512   1.555       .  S
C2508      C2510   1.544       .  S
C2508      H2514   1.109       .  S
C2509      H2515   1.086       .  S
C2509      C2510   1.370       .  D
C2510      C3258   1.503       .  S
C2511      H2516   1.083       .  S
C2511      C2512   1.364       .  D
C2512      C2712   1.508       .  S
C2517      C2518   1.537       .  S
C2517      C2523   1.526       .  S
C2517      C2521   1.527       .  S
C2517      C2557   1.502       .  S
C2518      H3701   1.087   1_545  S
C2518      C2519   1.357       .  D
C2519      C2520   1.529       .  S
C2519      C3242   1.475       .  S
C2520      C2524   1.545       .  S
C2520      C2522   1.566       .  S
C2520      H2526   1.110       .  S
C2521      C2522   1.371       .  D
C2522      C3226   1.491       .  S
C2523      H2528   1.072       .  S
C2523      C2524   1.359       .  D
C2524      C2708   1.493       .  S
H2525      C3694   1.087       .  S
C2529      C2530   1.555       .  S
C2529      C2535   1.527       .  S
C2529      C2533   1.536   1_545  S
C2529      C2546   1.533       .  S
C2530      H2537   1.085       .  S
C2530      C2531   1.392       .  D
C2531      C2532   1.551       .  S
C2531      C3194   1.503       .  S
C2532      C2536   1.551       .  S
C2532      C2534   1.558       .  S
C2532      H2538   1.109       .  S
C2533      H3715   1.090       .  S
C2533      C2534   1.348   1_565  D
C2534      C3210   1.506   1_545  S
C2535      H2540   1.079       .  S
C2535      C2536   1.358       .  D
C2536      C2713   1.506       .  S
H2539      C3709   1.090       .  S
O2541      C2556   1.263       .  A
O2541     Al2549   1.922       .  S
C2542      O2552   1.260       .  A
C2542      O2543   1.265   1_655  A
O2544      C3722   1.272       .  A
O2544     Al2545   1.922       .  S
Al2545     O2553   1.930       .  S
Al2545     O2555   1.934       .  S
Al2545     O2554   1.796       .  S
C2546      O3720   1.271   1_545  A
C2546      O2559   1.268       .  A
O2547     Al2549   1.895       .  S
O2548      C3737   1.264       .  A
O2548     Al2558   1.925       .  S
Al2549     O2562   1.933       .  S
Al2549     O2559   1.953       .  S
Al2549     O3730   1.801   1_545  S
O2550      C3733   1.262       .  A
O2550     Al2558   1.893       .  S
O2551      C2560   1.264       .  A
O2551     Al2558   1.892       .  S
O2552     Al2558   1.902       .  S
O2554     Al3725   1.806       .  S
O2555      C3732   1.265       .  A
C2556      C2669   1.528       .  S
C2556      O3731   1.266   1_545  A
C2557      O3726   1.260   1_545  A
C2560      C2657   1.521       .  S
C2561      C2681   1.537       .  S
C2561      O3724   1.265       .  A
C2563      N2564   1.372       .  A
C2563      N2568   1.359       .  A
C2563      C3213   1.504       .  S
N2564      C2565   1.370       .  A
C2565      N2566   1.356       .  A
C2565      C3162   1.492       .  S
N2566      C2567   1.352       .  A
C2567      N2568   1.354       .  A
C2567      C3178   1.472       .  S
C2569      N2570   1.363       .  A
C2569      N2574   1.352       .  A
C2569      C3245   1.474       .  S
N2570      C3747   1.363       .  A
C2571      N3746   1.364       .  A
C2571      N2572   1.355       .  A
C2571      C3146   1.473       .  S
N2572      C2573   1.347       .  A
C2573      N3750   1.346       .  A
C2573      C3181   1.451       .  S
N2574      C3749   1.347       .  A
C2575      N2576   1.357       .  A
C2575      N2580   1.357       .  A
C2575      C3229   1.475       .  S
N2576      C2577   1.358       .  A
N2578      C2579   1.351       .  A
C2579      C3114   1.491       .  S
C2581      N2582   1.367       .  A
C2581      N2586   1.355       .  A
C2581      C3098   1.473       .  S
N2582      C2583   1.364       .  A
C2583      N2584   1.352       .  A
N2584      C2585   1.353       .  A
C2585      N2586   1.352       .  A
C2585      C3133   1.482       .  S
C2587      N2588   1.374       .  A
C2587      N2592   1.354       .  A
C2587      C3261   1.507       .  S
N2588      C2589   1.373       .  A
C2589      N2590   1.353       .  A
C2589      C3066   1.479       .  S
N2590      C2591   1.348       .  A
C2591      N2592   1.348       .  A
C2591      C3082   1.483       .  S
C2593      N2594   1.358       .  A
C2593      N2598   1.350       .  A
C2593      C3197   1.478       .  S
N2594      C2595   1.361       .  A
C2595      N2596   1.352       .  A
C2595      C3050   1.440       .  S
N2596      C2597   1.343       .  A
C2597      N2598   1.352       .  A
C2597      C3085   1.488       .  S
C2599      C2600   1.552       .  S
C2599      C2605   1.530       .  S
C2599      C2603   1.542       .  S
C2599      C2651   1.529       .  S
C2600      H2607   1.079       .  S
C2600      C2601   1.375       .  D
C2601      C2602   1.543       .  S
C2601      C3101   1.515       .  S
C2602      C2606   1.547       .  S
C2602      C2604   1.549       .  S
C2602      H2608   1.107       .  S
C2603      H2609   1.084       .  S
C2603      C2604   1.375       .  D
C2604      C3165   1.498       .  S
C2605      H2610   1.081       .  S
C2605      C2606   1.360       .  D
C2611      C2612   1.526       .  S
C2611      C2617   1.522       .  S
C2611      C2615   1.537       .  S
C2611      C2640   1.514       .  S
C2612      H2619   1.087       .  S
C2612      C2613   1.353       .  D
C2613      C2614   1.542       .  S
C2613      C3053   1.478       .  S
C2614      C2618   1.543       .  S
C2614      C2616   1.549       .  S
C2614      H2620   1.109       .  S
C2615      C2616   1.383       .  D
C2616      C3117   1.499       .  S
C2617      H2622   1.076       .  S
C2617      C2618   1.359       .  D
C2623      C2624   1.541       .  S
C2623      C2629   1.522       .  S
C2623      C2627   1.545       .  S
C2623      C2636   1.522       .  S
C2624      H3807   1.087       .  S
C2624      C2625   1.366       .  D
C2625      C2626   1.542       .  S
C2625      C3149   1.485       .  S
C2626      C2630   1.546       .  S
C2626      C2628   1.556       .  S
C2626      H2632   1.108       .  S
C2627      H2633   1.085       .  S
C2627      C2628   1.383       .  D
C2628      C3069   1.506       .  S
C2629      H2634   1.078       .  S
C2629      C2630   1.352       .  D
H2631      C3800   1.087   1_545  S
O2635      C2650   1.265       .  A
O2635     Al2643   1.923       .  S
C2636      O2646   1.264       .  A
C2636      O2637   1.268       .  A
O2637     Al3815   1.934       .  S
O2638      C2640   1.259       .  A
Al2639     O3813   1.936   1_545  S
Al2639     O3823   1.907       .  S
C2640      O2653   1.271       .  A
O2641      C2651   1.268       .  A
O2641     Al3819   1.933       .  S
O2642      C2655   1.272       .  A
Al2643     O3817   1.939       .  S
Al2643     O3832   1.936   1_545  S
Al2643     O2653   1.945       .  S
Al2643     O3824   1.788       .  S
O2644      C2651   1.268       .  A
O2645      C2654   1.275       .  A
O2645     Al2652   1.970       .  S
O2646     Al2652   1.932       .  S
O2647      C2654   1.261       .  A
O2647     Al3815   1.902       .  S
O2648     Al3819   1.786       .  S
O2649      C2650   1.266       .  A
C2655      O2656   1.270       .  A
O2656     Al3819   1.941       .  S
C2657      C2658   1.522       .  S
C2657      C2663   1.526       .  S
C2657      C2661   1.563       .  S
C2658      H2665   1.087       .  S
C2658      C2659   1.358       .  D
C2659      C2660   1.569       .  S
C2659      C3034   1.524       .  S
C2660      C2664   1.559       .  S
C2660      C2662   1.513       .  S
C2660      H2666   1.101       .  S
C2661      H2667   1.085       .  S
C2661      C2662   1.385       .  D
C2662      C3018   1.489       .  S
C2663      H2668   1.080       .  S
C2663      C2664   1.366       .  D
C2664      C2694   1.508       .  S
C2669      C2670   1.532       .  S
C2669      C2675   1.548       .  S
C2669      C2673   1.538       .  S
C2670      H2677   1.070       .  S
C2670      C2671   1.356       .  D
C2671      C2672   1.511       .  S
C2671      C2709   1.480       .  S
C2672      C2676   1.533       .  S
C2672      C2674   1.534       .  S
C2672      H2678   1.108       .  S
C2673      H2679   1.085   1_545  S
C2673      C2674   1.373       .  D
C2674      C2989   1.469       .  S
C2675      H2680   1.084       .  S
C2675      C2676   1.386       .  D
C2676      C3002   1.504       .  S
C2681      C2682   1.535       .  S
C2681      C2687   1.529       .  S
C2681      C2685   1.540       .  S
C2682      H2689   1.087   1_655  S
C2682      C2683   1.362       .  D
C2683      C2684   1.540       .  S
C2683      C2970   1.488       .  S
C2684      C2688   1.563       .  S
C2684      C2686   1.577       .  S
C2684      H2690   1.096       .  S
C2685      H2691   1.081   1_545  S
C2685      C2686   1.393       .  D
C2686      C2954   1.543       .  S
C2687      H2692   1.078       .  S
C2687      C2688   1.363       .  D
C2688      C2698   1.527       .  S
O2693      C2708   1.276       .  A
O2693     Al2701   1.934       .  S
C2694      O2704   1.259       .  A
C2694      O2695   1.268       .  A
O2695     Al2697   1.942       .  S
O2696      C2698   1.268       .  A
O2696     Al2697   1.980       .  S
Al2697     O2705   1.931       .  S
Al2697     O2707   1.955       .  S
Al2697     O2706   1.797       .  S
C2698      O2711   1.260       .  A
O2699      C2709   1.274       .  A
O2699     Al2701   1.915       .  S
O2700      C2713   1.258       .  A
O2700     Al2710   1.933       .  S
Al2701     O2714   1.934       .  S
Al2701     O2711   1.938       .  S
Al2701     O2706   1.800       .  S
O2702      C2709   1.277       .  A
O2702     Al2710   1.948       .  S
O2703      C2712   1.269       .  A
O2703     Al2710   1.945       .  S
O2704     Al2710   1.921       .  S
O2705      C2712   1.266       .  A
O2706     Al2710   1.800       .  S
O2707      C2708   1.277       .  A
C2713      O2714   1.255       .  A
C2715      N2716   1.362       .  A
C2715      N2720   1.365       .  A
C2715      C2957   1.493       .  S
N2716      C2717   1.365       .  A
C2717      N3894   1.349       .  A
C2717      C2925   1.482   1_545  S
N2718      C3893   1.347       .  A
N2718      C2719   1.346       .  A
C2719      N3896   1.363       .  A
C2719      C2938   1.493       .  S
N2720      C3895   1.363       .  A
C2721      N2722   1.359       .  A
C2721      N2726   1.370       .  A
C2721      C3037   1.512       .  S
N2722      C2723   1.357       .  A
C2723      N2724   1.358       .  A
C2723      C2941   1.497   1_655  S
N2724      C2725   1.356       .  A
C2725      N2726   1.373       .  A
C2725      C2906   1.505       .  S
C2727      N2728   1.349       .  A
C2727      N3908   1.374       .  A
C2727      C4162   1.475       .  S
N2728      C2729   1.334       .  A
C2729      N2730   1.348       .  A
C2729      C2890   1.450       .  S
N2730      C2731   1.351       .  A
C2731      N3908   1.371       .  A
C2731      C2874   1.499       .  S
N2732      C3903   1.375       .  A
N2732      C3907   1.371       .  A
C2733      N2734   1.351       .  A
N2734      C2735   1.345       .  A
C2735      N2736   1.354       .  A
C2735      C2893   1.443       .  S
N2736      C2737   1.355       .  A
C2737      C2858   1.476       .  S
C2739      N2740   1.358       .  A
C2739      N2744   1.363       .  A
C2739      C3005   1.483       .  S
N2740      C2741   1.350       .  A
C2741      N2742   1.347       .  A
C2741      C2845   1.459       .  S
N2742      C2743   1.352       .  A
C2743      N2744   1.359       .  A
C2743      C2826   1.460       .  S
C2745      N2746   1.346       .  A
C2745      N2750   1.376   1_455  A
C2745      C2973   1.481   1_455  S
C2747      N2748   1.337       .  A
C2747      C2842   1.441       .  S
C2749      N2750   1.377   1_455  A
C2749      C2810   1.486   1_455  S
C2751      C2752   1.528       .  S
C2751      C2757   1.532       .  S
C2751      C2755   1.543       .  S
C2751      C2803   1.534       .  S
C2752      H2759   1.088       .  S
C2752      C2753   1.360       .  D
C2753      C2754   1.553       .  S
C2753      C2829   1.480       .  S
C2754      C2758   1.551       .  S
C2754      C2756   1.570       .  S
C2754      H2760   1.105       .  S
C2755      H2761   1.081       .  S
C2755      C2756   1.387       .  D
C2756      C2909   1.532       .  S
C2757      H2762   1.068       .  S
C2757      C2758   1.357       .  D
C2763      C2764   1.542       .  S
C2763      C2769   1.522   1_545  S
C2763      C2767   1.532       .  S
C2763      C2788   1.519       .  S
C2764      H2771   1.082       .  S
C2764      C2765   1.374   1_545  D
C2765      C3942   1.541       .  S
C2765      C2922   1.505       .  S
C2766      C3941   1.540       .  S
C2766      C2770   1.542       .  S
C2766      C3944   1.564       .  S
C2766      H2772   1.107       .  S
C2767      H2773   1.082       .  S
C2767      C2768   1.376   1_545  D
C2768      C3942   1.564       .  S
C2768      C2877   1.504       .  S
C2769      H2774   1.075       .  S
C2769      C3946   1.352       .  D
C2770      C3945   1.353       .  D
C2775      C2776   1.540       .  S
C2775      C2781   1.532       .  S
C2775      C2779   1.548       .  S
C2775      C2792   1.528       .  S
C2776      H2783   1.084       .  S
C2776      C2777   1.381       .  D
C2777      C2861   1.489       .  S
C2778      C2782   1.545       .  S
C2778      H2784   1.111       .  S
C2779      H2785   1.086       .  S
C2779      C2780   1.357       .  D
C2780      C2813   1.485       .  S
C2781      H2786   1.080       .  S
O2787      C2802   1.271       .  A
O2787     Al2795   1.956       .  S
C2788      O2798   1.255       .  A
C2788      O2789   1.262       .  A
O2789     Al2791   1.911   1_556  S
O2790      C2792   1.258       .  A
O2790     Al2791   1.881   1_556  S
Al2791     O2799   1.901       .  S
Al2791     O2801   1.915       .  S
Al2791     O2800   1.798       .  S
C2792      O2805   1.269       .  A
O2793      C2803   1.262       .  A
O2793     Al2795   1.928   1_556  S
O2794      C2807   1.255       .  A
O2794     Al2804   1.880       .  S
Al2795     O2808   1.985       .  S
Al2795     O2805   1.963   1_554  S
Al2795     O2800   1.808       .  S
O2796      C2803   1.272       .  A
O2796     Al2804   1.934   1_556  S
O2797      C2806   1.270       .  A
O2797     Al2804   1.945       .  S
O2798     Al2804   1.905   1_556  S
O2799      C2806   1.260       .  A
O2800     Al2804   1.797       .  S
O2801      C2802   1.261       .  A
C2807      O2808   1.280       .  A
C2809      C2810   1.396       .  A
C2809      C2814   1.411       .  A
C2809      H2816   1.082       .  S
C2810      C2811   1.423   1_655  A
C2811      C2812   1.393       .  A
C2812      C2813   1.388   1_455  A
C2813      C2814   1.421       .  A
C2814      C2815   1.498       .  S
C2815      H2819   1.107       .  S
C2815      H2820   1.103       .  S
C2815      H2821   1.108       .  S
C2818      H2822   1.110       .  S
C2818      H2824   1.110       .  S
C2825      C2826   1.405       .  A
C2825      C2830   1.400       .  A
C2825      H2832   1.082       .  S
C2826      C2827   1.399       .  A
C2827      C2834   1.496       .  S
C2827      C2828   1.397       .  A
C2828      C2829   1.409       .  A
C2828      H2833   1.083       .  S
C2829      C2830   1.399       .  A
C2830      C2831   1.498       .  S
C2831      H2835   1.106       .  S
C2831      H2836   1.111       .  S
C2831      H2837   1.110       .  S
C2834      H2838   1.110       .  S
C2834      H2839   1.108       .  S
C2834      H2840   1.110       .  S
C2841      C2842   1.405       .  A
C2841      C2846   1.409       .  A
C2841      H2848   1.084       .  S
C2842      C2843   1.404       .  A
C2843      C2850   1.510       .  S
C2843      C2844   1.365       .  A
C2844      C2845   1.401       .  A
C2844      H2849   1.083       .  S
C2845      C2846   1.410       .  A
C2846      C2847   1.499       .  S
C2847      H2851   1.101       .  S
C2847      H2852   1.108       .  S
C2847      H2853   1.110       .  S
C2850      H2856   1.110       .  S
C2857      C2858   1.407       .  A
C2857      C2862   1.403       .  A
C2857      H2864   1.084       .  S
C2859      C2866   1.504       .  S
C2859      C2860   1.406       .  A
C2860      C2861   1.407       .  A
C2860      H2865   1.078       .  S
C2862      C2863   1.507       .  S
C2863      H2867   1.111       .  S
C2863      H2868   1.110       .  S
C2863      H2869   1.109       .  S
C2866      H2870   1.110       .  S
C2866      H2871   1.108       .  S
C2866      H2872   1.109       .  S
C2873      C4050   1.401   1_545  A
C2873      C2878   1.411       .  A
C2873      H2880   1.084       .  S
C2874      C4049   1.402       .  A
C2874      C2875   1.432       .  A
C2875      C2882   1.512       .  S
C2875      C2876   1.401       .  A
C2876      C4053   1.394       .  A
C2876      H2881   1.085       .  S
C2877      C4052   1.396       .  A
C2877      C2878   1.426   1_565  A
C2878      C2879   1.503       .  S
C2879      H2883   1.111       .  S
C2879      H2884   1.106       .  S
C2879      H2885   1.109       .  S
C2882      H2886   1.108       .  S
C2882      H2887   1.107       .  S
C2882      H2888   1.109       .  S
C2889      C2890   1.404       .  A
C2889      C2894   1.408       .  A
C2889      H2896   1.084       .  S
C2890      C2891   1.411       .  A
C2891      C2898   1.509       .  S
C2891      C2892   1.363       .  A
C2892      C2893   1.387       .  A
C2892      H2897   1.082       .  S
C2893      C2894   1.412       .  A
C2894      C2895   1.501       .  S
C2895      H2899   1.110       .  S
C2895      H2900   1.107       .  S
C2895      H2901   1.108       .  S
C2898      H2902   1.105       .  S
C2898      H2903   1.101       .  S
C2898      H2904   1.110       .  S
C2905      C2906   1.408       .  A
C2905      C2910   1.412       .  A
C2905      H2912   1.084       .  S
C2906      C2907   1.411       .  A
C2907      C2914   1.502       .  S
C2907      C2908   1.412       .  A
C2908      C2909   1.414       .  A
C2908      H2913   1.076       .  S
C2909      C2910   1.426       .  A
C2910      C2911   1.507       .  S
C2911      H2915   1.111       .  S
C2911      H2916   1.108       .  S
C2911      H2917   1.108       .  S
C2914      H2918   1.104       .  S
C2914      H2919   1.110       .  S
C2914      H2920   1.106       .  S
C2921      C2922   1.411       .  A
C2921      C2926   1.401       .  A
C2921      H4104   1.076       .  S
C2922      C2923   1.416       .  A
C2923      C2930   1.507   1_565  S
C2923      C2924   1.400   1_565  A
C2924      C2925   1.407   1_545  A
C2924      H2929   1.083       .  S
C2925      C2926   1.408       .  A
C2926      C4103   1.505       .  S
C2927      C4102   1.506       .  S
C2927      H2931   1.110       .  S
C2927      H2932   1.110       .  S
C2927      H2933   1.106       .  S
H2928      C4097   1.075       .  S
C2930      H2934   1.109   1_545  S
C2930      H2935   1.111       .  S
C2930      H2936   1.111   1_545  S
C2937      C2938   1.407   1_455  A
C2937      C2942   1.403       .  A
C2937      H2944   1.075       .  S
C2938      C2939   1.431   1_655  A
C2939      C2946   1.505   1_455  S
C2939      C2940   1.407       .  A
C2940      C2941   1.401       .  A
C2940      H2945   1.084       .  S
C2941      C2942   1.407       .  A
C2942      C2943   1.498       .  S
C2943      H2947   1.111       .  S
C2943      H2948   1.103       .  S
C2943      H2949   1.110       .  S
C2946      H2950   1.111       .  S
C2946      H2951   1.104       .  S
C2946      H2952   1.110   1_655  S
C2953      C2954   1.419   1_565  A
C2953      C2958   1.410       .  A
C2953      H2960   1.079       .  S
C2954      C2955   1.432       .  A
C2955      C2962   1.505       .  S
C2955      C2956   1.417       .  A
C2956      C2957   1.400       .  A
C2956      H2961   1.084       .  S
C2957      C2958   1.405   1_545  A
C2958      C2959   1.505       .  S
C2959      H2963   1.110       .  S
C2959      H4140   1.111       .  S
C2959      H2965   1.105       .  S
C2962      H2966   1.107       .  S
C2962      H2967   1.106       .  S
C2962      H2968   1.111       .  S
H2964      C4135   1.111       .  S
C2969      C2970   1.404       .  A
C2969      C2974   1.396       .  A
C2969      H2976   1.084       .  S
C2970      C2971   1.396       .  A
C2971      C2978   1.502       .  S
C2971      C2972   1.408       .  A
C2972      C2973   1.402       .  A
C2972      H2977   1.068       .  S
C2973      C2974   1.416       .  A
C2974      C2975   1.492   1_655  S
C2975      H2979   1.111   1_455  S
C2975      H2980   1.097       .  S
C2975      H2981   1.110       .  S
C2978      H2982   1.105       .  S
C2978      H2983   1.110   1_655  S
C2978      H2984   1.100       .  S
C2985      C2986   1.405       .  A
C2985      C2990   1.405       .  A
C2985      H2992   1.084       .  S
C2986      C3903   1.475   1_545  S
C2986      C2987   1.423       .  A
C2987      C4170   1.504   1_545  S
C2987      C2988   1.394       .  A
C2988      C2989   1.392       .  A
C2988      H2993   1.085       .  S
C2989      C2990   1.415       .  A
C2990      C2991   1.509       .  S
C2991      H2995   1.110       .  S
C2991      H2996   1.110   1_545  S
C2991      H2997   1.104       .  S
C2994      C4163   1.503       .  S
C2994      H2998   1.110       .  S
C2994      H4175   1.107       .  S
C2994      H3000   1.108       .  S
H2999      C4170   1.107       .  S
C3001      C3002   1.418       .  A
C3001      C3006   1.398       .  A
C3001      H3008   1.074       .  S
C3002      C3003   1.411       .  A
C3003      C3010   1.507       .  S
C3003      C3004   1.399       .  A
C3004      C3005   1.413       .  A
C3004      H3009   1.084       .  S
C3005      C3006   1.405       .  A
C3006      C3007   1.510       .  S
C3007      H3011   1.110       .  S
C3007      H3012   1.109       .  S
C3007      H3013   1.111       .  S
C3010      H3014   1.110       .  S
C3010      H3015   1.108       .  S
C3010      H3016   1.111       .  S
C3017      C3018   1.399       .  A
C3018      C3019   1.429       .  A
C3019      C3026   1.508       .  S
C3019      C3020   1.405       .  A
C3020      C3021   1.396       .  A
C3020      H3025   1.085       .  S
C3022      C3023   1.497       .  S
C3023      H3027   1.101       .  S
C3023      H3028   1.110       .  S
C3023      H3029   1.108       .  S
C3026      H3030   1.103       .  S
C3026      H3031   1.110       .  S
C3026      H3032   1.107       .  S
C3033      C3034   1.413       .  A
C3033      C3038   1.399       .  A
C3033      H3040   1.082       .  S
C3034      C3035   1.405       .  A
C3035      C3042   1.489       .  S
C3035      C3036   1.419       .  A
C3036      C3037   1.412       .  A
C3036      H3041   1.084       .  S
C3037      C3038   1.426       .  A
C3038      C3039   1.511       .  S
C3039      H3043   1.112       .  S
C3039      H3044   1.109       .  S
C3039      H3045   1.101       .  S
C3042      H3046   1.106       .  S
C3042      H3047   1.108       .  S
C3042      H3048   1.103       .  S
C3049      C3050   1.387       .  A
C3049      C3054   1.393       .  A
C3049      H3056   1.086       .  S
C3050      C3051   1.408       .  A
C3051      C3058   1.505       .  S
C3051      C3052   1.394       .  A
C3052      C3053   1.398       .  A
C3052      H3057   1.084       .  S
C3053      C3054   1.435       .  A
C3054      C3055   1.515       .  S
C3055      H3059   1.110       .  S
C3055      H3060   1.106       .  S
C3055      H3061   1.100       .  S
C3058      H3062   1.110       .  S
C3058      H3063   1.110       .  S
C3058      H3064   1.110       .  S
C3065      C3066   1.402       .  A
C3065      C3070   1.406       .  A
C3065      H3072   1.083       .  S
C3066      C3067   1.409       .  A
C3067      C3074   1.508       .  S
C3067      C3068   1.412       .  A
C3068      C3069   1.413       .  A
C3068      H3073   1.083       .  S
C3069      C3070   1.419       .  A
C3070      C3071   1.508       .  S
C3071      H3075   1.110       .  S
C3071      H3076   1.106       .  S
C3071      H3077   1.110       .  S
C3074      H3078   1.108       .  S
C3074      H3079   1.110       .  S
C3074      H3080   1.109       .  S
C3081      C3082   1.415       .  A
C3081      C3086   1.407       .  A
C3081      H3088   1.083       .  S
C3082      C3083   1.425       .  A
C3083      C3090   1.509       .  S
C3083      C3084   1.402       .  A
C3084      C3085   1.394       .  A
C3084      H3089   1.083       .  S
C3085      C3086   1.408       .  A
C3086      C3087   1.501       .  S
C3087      H3091   1.111       .  S
C3087      H3092   1.110       .  S
C3087      H3093   1.110       .  S
C3090      H3094   1.109       .  S
C3090      H3095   1.107       .  S
C3090      H3096   1.110       .  S
C3097      C3098   1.396       .  A
C3097      C3102   1.407       .  A
C3098      C3099   1.409       .  A
C3099      C3106   1.507       .  S
C3099      C3100   1.404       .  A
C3100      C3101   1.412       .  A
C3100      H3105   1.083       .  S
C3101      C3102   1.430       .  A
C3103      H3107   1.110       .  S
C3103      H3108   1.109       .  S
C3103      H3109   1.105       .  S
C3106      H3110   1.110       .  S
C3106      H3111   1.109       .  S
C3106      H3112   1.110       .  S
C3113      H3120   1.083       .  S
C3114      C3115   1.414       .  A
C3115      C3122   1.508       .  S
C3115      C3116   1.400       .  A
C3116      C3117   1.408       .  A
C3116      H3121   1.075       .  S
C3117      C3118   1.410       .  A
C3119      H3123   1.110       .  S
C3119      H3124   1.111       .  S
C3122      H3126   1.110       .  S
C3122      H3127   1.108       .  S
C3122      H3128   1.109       .  S
C3129      C3130   1.407       .  A
C3129      C3134   1.412       .  A
C3129      H3136   1.077       .  S
C3131      C3138   1.501       .  S
C3131      C3132   1.402       .  A
C3132      H3137   1.081       .  S
C3133      C3134   1.427       .  A
C3134      C3135   1.506       .  S
C3135      H3139   1.108       .  S
C3135      H3140   1.109       .  S
C3135      H3141   1.111       .  S
C3138      H3142   1.108       .  S
C3138      H3143   1.108       .  S
C3138      H3144   1.111       .  S
C3145      C3146   1.405       .  A
C3145      C3150   1.397       .  A
C3145      H4328   1.085       .  S
C3146      C3147   1.407       .  A
C3147      C3154   1.504       .  S
C3147      C3148   1.405       .  A
C3148      C3149   1.411       .  A
C3148      H3153   1.083       .  S
C3149      C3150   1.406       .  A
C3150      C3151   1.508       .  S
C3151      H4331   1.111       .  S
C3151      H3156   1.108       .  S
C3151      H4333   1.110       .  S
H3152      C4321   1.085       .  S
C3154      H3158   1.104       .  S
C3154      H3159   1.107       .  S
C3154      H3160   1.109       .  S
H3155      C4327   1.111       .  S
H3157      C4327   1.110       .  S
C3161      C3162   1.401       .  A
C3161      C3166   1.414       .  A
C3161      H4344   1.084       .  S
C3162      C3163   1.423       .  A
C3163      C3170   1.506       .  S
C3163      C3164   1.401       .  A
C3164      C3165   1.397       .  A
C3164      H3169   1.085       .  S
C3165      C3166   1.422       .  A
C3166      C4343   1.501       .  S
C3167      C4342   1.499       .  S
C3167      H3171   1.109       .  S
C3167      H3172   1.101       .  S
C3167      H3173   1.108       .  S
H3168      C4337   1.084       .  S
C3170      H3174   1.107       .  S
C3170      H3175   1.107       .  S
C3170      H3176   1.111       .  S
C3177      C4354   1.401       .  A
C3177      C3182   1.372       .  A
C3177      H3184   1.080       .  S
C3178      C4353   1.401       .  A
C3178      C3179   1.409       .  A
C3179      C3186   1.498       .  S
C3179      C3180   1.413       .  A
C3180      C3181   1.406       .  A
C3180      H3185   1.084       .  S
C3181      C4358   1.409       .  A
C3182      C3183   1.516       .  S
C3182      C4357   1.409       .  A
C3183      H3187   1.108       .  S
C3183      H3188   1.102       .  S
C3183      H3189   1.110       .  S
C3186      H3190   1.109       .  S
C3186      H3191   1.110       .  S
C3186      H3192   1.110       .  S
C3193      C3194   1.405       .  A
C3193      C3198   1.385       .  A
C3193      H3200   1.074       .  S
C3194      C3195   1.415       .  A
C3195      C3202   1.505       .  S
C3195      C3196   1.414       .  A
C3196      C3197   1.411       .  A
C3196      H3201   1.084       .  S
C3197      C3198   1.411       .  A
C3198      C3199   1.514       .  S
C3199      H3203   1.108   1_545  S
C3199      H3204   1.108       .  S
C3199      H3205   1.109   1_545  S
C3202      H3206   1.108       .  S
C3202      H3207   1.105       .  S
C3202      H3208   1.111       .  S
C3209      C4386   1.417       .  A
C3209      C3214   1.408       .  A
C3209      H3216   1.082       .  S
C3210      C4385   1.417       .  A
C3210      C3211   1.403       .  A
C3211      C3218   1.506       .  S
C3211      C3212   1.406       .  A
C3212      C4389   1.422       .  A
C3212      H3217   1.083       .  S
C3213      C4388   1.420       .  A
C3213      C3214   1.412       .  A
C3214      C3215   1.506       .  S
C3215      H3219   1.111       .  S
C3215      H3220   1.101       .  S
C3215      H3221   1.108       .  S
C3218      H3222   1.109       .  S
C3218      H3223   1.110       .  S
C3218      H3224   1.111       .  S
C3225      C3226   1.395       .  A
C3225      C3230   1.394       .  A
C3225      H3232   1.084       .  S
C3226      C3227   1.426   1_655  A
C3227      C3234   1.507       .  S
C3227      C3228   1.407       .  A
C3228      C3229   1.397   1_455  A
C3228      H3233   1.084       .  S
C3229      C3230   1.412       .  A
C3230      C3231   1.495       .  S
C3231      H3235   1.109       .  S
C3231      H3236   1.101       .  S
C3231      H3237   1.109       .  S
C3234      H3238   1.107       .  S
C3234      H3240   1.111       .  S
C3241      C4418   1.408       .  A
C3241      C3246   1.403       .  A
C3241      H3248   1.076       .  S
C3242      C4417   1.406       .  A
C3242      C3243   1.400       .  A
C3243      C3250   1.507       .  S
C3243      C3244   1.399   1_545  A
C3244      C3245   1.412       .  A
C3244      H3249   1.080       .  S
C3245      C4422   1.405   1_565  A
C3246      C3247   1.509       .  S
C3246      C4421   1.405       .  A
C3247      H3251   1.110       .  S
C3247      H3252   1.108       .  S
C3247      H3253   1.106       .  S
C3250      H3254   1.110       .  S
C3250      H3255   1.110   1_545  S
C3250      H3256   1.110   1_545  S
C3257      C3258   1.410       .  A
C3257      C3262   1.411       .  A
C3257      H3264   1.083       .  S
C3258      C3259   1.412       .  A
C3259      C3266   1.506       .  S
C3259      C3260   1.403       .  A
C3260      C3261   1.412       .  A
C3260      H3265   1.079       .  S
C3261      C3262   1.410       .  A
C3262      C3263   1.493       .  S
C3263      H3267   1.106       .  S
C3263      H3268   1.108       .  S
C3263      H3269   1.104       .  S
C3266      H3270   1.106       .  S
C3266      H3271   1.111       .  S
C3266      H3272   1.111       .  S
C3273      C3274   1.404       .  A
C3273      C3278   1.406       .  A
C3273      H3280   1.081       .  S
C3275      C3282   1.504       .  S
C3275      C3276   1.407       .  A
C3276      H3281   1.082       .  S
C3277      C3278   1.406       .  A
C3278      C3279   1.505       .  S
C3279      H3283   1.107       .  S
C3279      H3284   1.110       .  S
C3279      H3285   1.110       .  S
C3282      H3286   1.110       .  S
C3282      H3287   1.110       .  S
C3282      H3288   1.111       .  S
C3289      C3290   1.382       .  A
C3289      C3294   1.404       .  A
C3289      H3296   1.078       .  S
C3290      C3291   1.407       .  A
C3291      C3298   1.502       .  S
C3291      C3292   1.407       .  A
C3292      C3293   1.419       .  A
C3292      H3297   1.083       .  S
C3293      C3294   1.439       .  A
C3294      C3295   1.486       .  S
C3295      H3299   1.110       .  S
C3295      H3300   1.108       .  S
C3295      H3301   1.083       .  S
C3298      H3302   1.109       .  S
C3298      H3303   1.110       .  S
C3298      H3304   1.110       .  S
C3305      C3306   1.412       .  A
C3305      C3310   1.388       .  A
C3305      H3312   1.071       .  S
C3306      C3307   1.411       .  A
C3307      C3314   1.508       .  S
C3307      C3308   1.396       .  A
C3308      C3309   1.406       .  A
C3309      C3310   1.398       .  A
C3310      C3311   1.511       .  S
C3311      H3315   1.109       .  S
C3311      H3316   1.107       .  S
C3311      H3317   1.110       .  S
C3314      H3318   1.107       .  S
C3314      H3319   1.111       .  S
C3321      C3322   1.396       .  A
C3321      C3326   1.412       .  A
C3321      H3328   1.082       .  S
C3322      C3323   1.422       .  A
C3323      C4506   1.501       .  S
C3323      C3324   1.418       .  A
C3324      C3325   1.404       .  A
C3324      H3329   1.084       .  S
C3325      C3326   1.430       .  A
C3326      C3327   1.505       .  S
C3327      H3331   1.105       .  S
C3327      H3332   1.109       .  S
C3327      H3333   1.092       .  S
C3330      C4499   1.501       .  S
C3330      H3334   1.106       .  S
C3330      H3335   1.109       .  S
C3330      H3336   1.111       .  S
C3337      C3338   1.400       .  A
C3337      C3342   1.405       .  A
C3337      H3344   1.084       .  S
C3338      C3339   1.404       .  A
C3339      C3346   1.509       .  S
C3339      C3340   1.401       .  A
C3340      C3341   1.415       .  A
C3340      H3345   1.076       .  S
C3341      C3342   1.421       .  A
C3342      C3343   1.506       .  S
C3343      H3347   1.110       .  S
C3343      H3348   1.109       .  S
C3343      H3349   1.103       .  S
C3346      H3350   1.110       .  S
C3346      H3351   1.111       .  S
C3346      H3352   1.111       .  S
C3353      C3354   1.410       .  A
C3353      C3358   1.413       .  A
C3353      H3360   1.079       .  S
C3354      C3355   1.414       .  A
C3355      C3362   1.507       .  S
C3355      C3356   1.406       .  A
C3356      C3357   1.403       .  A
C3356      H3361   1.085       .  S
C3357      C3358   1.410       .  A
C3358      C3359   1.504       .  S
C3359      H3363   1.110       .  S
C3359      H3364   1.110       .  S
C3359      H3365   1.109       .  S
C3362      H3366   1.105       .  S
C3369      C3370   1.400       .  A
C3369      C3374   1.399   1_455  A
C3369      H3376   1.085       .  S
C3370      C3371   1.412   1_455  A
C3371      C3372   1.401       .  A
C3372      C3373   1.408       .  A
C3372      H3377   1.084       .  S
C3373      C3374   1.417       .  A
C3374      C3375   1.492       .  S
C3375      H3379   1.111       .  S
C3375      H3380   1.111       .  S
C3375      H3381   1.103       .  S
C3378      H3382   1.111       .  S
C3378      H3383   1.111       .  S
C3378      H3384   1.110       .  S
C3385      C3386   1.404       .  A
C3385      C3390   1.399       .  A
C3385      H3392   1.085       .  S
C3386      C3387   1.431       .  A
C3387      C3394   1.512       .  S
C3387      C3388   1.403       .  A
C3388      C3389   1.395       .  A
C3388      H3393   1.085       .  S
C3389      C3390   1.410       .  A
C3390      C3391   1.506       .  S
C3391      H3395   1.110       .  S
C3391      H3396   1.108       .  S
C3391      H3397   1.110       .  S
C3394      H3398   1.105       .  S
C3394      H3399   1.108       .  S
C3394      H3400   1.111       .  S
C3401      C3402   1.406       .  A
C3401      C3406   1.397       .  A
C3401      H3408   1.085       .  S
C3402      C3403   1.414       .  A
C3403      C3410   1.507       .  S
C3403      C3404   1.402       .  A
C3404      C3405   1.407       .  A
C3404      H3409   1.084       .  S
C3405      C3406   1.409       .  A
C3406      C3407   1.506       .  S
C3407      H3411   1.111       .  S
C3407      H3412   1.102       .  S
C3407      H3413   1.108       .  S
C3410      H3414   1.110       .  S
C3410      H3415   1.110       .  S
C3410      H3416   1.111       .  S
C3417      C3418   1.407       .  A
C3417      C3422   1.399       .  A
C3417      H3424   1.084       .  S
C3418      C3595   1.481       .  S
C3418      C3419   1.421       .  A
C3419      C3426   1.510       .  S
C3419      C3420   1.404       .  A
C3420      C3421   1.403       .  A
C3420      H3425   1.084       .  S
C3421      C3422   1.413       .  A
C3422      C3423   1.504       .  S
C3423      H3427   1.107       .  S
C3423      H3428   1.111       .  S
C3423      H3429   1.109       .  S
C3426      H3430   1.105       .  S
C3426      H3431   1.110       .  S
C3426      H3432   1.110       .  S
C3433      C4610   1.393   1_545  A
C3433      C3438   1.400       .  A
C3433      H3440   1.086       .  S
C3434      C4609   1.393       .  A
C3434      C3435   1.412       .  A
C3435      C3442   1.493       .  S
C3435      C3436   1.419       .  A
C3436      C3437   1.411       .  A
C3436      H3441   1.083       .  S
C3437      C3677   1.527       .  S
C3437      C4614   1.433       .  A
C3438      C3439   1.494       .  S
C3438      C4613   1.430       .  A
C3439      H3443   1.104       .  S
C3439      H3444   1.102       .  S
C3439      H3445   1.106       .  S
C3442      H3446   1.110       .  S
C3442      H3447   1.101       .  S
C3442      H3448   1.106       .  S
C3449      C3450   1.403       .  A
C3449      C3454   1.400       .  A
C3449      H3456   1.075       .  S
C3450      C3451   1.404       .  A
C3451      C3458   1.505       .  S
C3451      C3452   1.405       .  A
C3452      C3453   1.407       .  A
C3452      H3457   1.084       .  S
C3453      C3454   1.407       .  A
C3454      C3455   1.507       .  S
C3455      H3459   1.111       .  S
C3455      H3460   1.110       .  S
C3455      H3461   1.111       .  S
C3458      H3462   1.111       .  S
C3458      H4639   1.111       .  S
C3458      H3464   1.109       .  S
H3463      C4634   1.111       .  S
C3465      C3466   1.402       .  A
C3465      C3470   1.396       .  A
C3465      H3472   1.082       .  S
C3466      C3467   1.417       .  A
C3467      C3468   1.409       .  A
C3468      C3469   1.402       .  A
C3469      C3470   1.402       .  A
C3470      C3471   1.494       .  S
C3471      H3475   1.102       .  S
C3471      H3476   1.108       .  S
C3471      H3477   1.107       .  S
C3474      H3478   1.108       .  S
C3474      H3479   1.108       .  S
C3474      H3480   1.110       .  S
C3481      C3486   1.408       .  A
C3481      H3488   1.084       .  S
C3482      C3483   1.405       .  A
C3483      C3490   1.504       .  S
C3483      C3484   1.402       .  A
C3484      C3485   1.405       .  A
C3484      H3489   1.083       .  S
C3486      C3487   1.505       .  S
C3487      H3491   1.111       .  S
C3487      H3492   1.110       .  S
C3487      H3493   1.108       .  S
C3490      H3494   1.110       .  S
C3490      H3495   1.108       .  S
C3490      H3496   1.110       .  S
C3497      C3498   1.399       .  A
C3497      C3502   1.398       .  A
C3497      H3504   1.084       .  S
C3498      C3499   1.423       .  A
C3499      C3506   1.510       .  S
C3499      C3500   1.402       .  A
C3500      C3501   1.395       .  A
C3500      H3505   1.084       .  S
C3501      C3502   1.411       .  A
C3502      C3503   1.505       .  S
C3503      H3507   1.108       .  S
C3503      H3508   1.109       .  S
C3503      H3509   1.110       .  S
C3506      H3510   1.098       .  S
C3506      H3511   1.108       .  S
C3506      H3512   1.111       .  S
C3513      C3514   1.412       .  A
C3513      C3518   1.408       .  A
C3513      H3520   1.081       .  S
C3514      C3515   1.401       .  A
C3515      C3522   1.503       .  S
C3515      C3516   1.399       .  A
C3516      C3517   1.407       .  A
C3516      H3521   1.082       .  S
C3517      C3518   1.404       .  A
C3518      C3519   1.503       .  S
C3519      H3523   1.109       .  S
C3519      H3524   1.110       .  S
C3519      H3525   1.110       .  S
C3522      H3526   1.111       .  S
C3522      H3527   1.106       .  S
C3522      H3528   1.106       .  S
C3529      C3530   1.530       .  S
C3529      C3535   1.528       .  S
C3529      C3533   1.535       .  S
C3529      C3581   1.514       .  S
C3530      H3537   1.086       .  S
C3530      C3531   1.370       .  D
C3531      C3532   1.567       .  S
C3531      C4690   1.491       .  S
C3532      C3536   1.547       .  S
C3532      C3534   1.532       .  S
C3532      H3538   1.108       .  S
C3533      H3539   1.085       .  S
C3533      C3534   1.360       .  D
C3534      C4674   1.475       .  S
C3535      H3540   1.072       .  S
C3535      C3536   1.363       .  D
C3536      C3983   1.502       .  S
C3541      C3542   1.546       .  S
C3541      C3547   1.539       .  S
C3541      C3545   1.532       .  S
C3541      C3566   1.535       .  S
C3542      H3549   1.086       .  S
C3542      C3543   1.371       .  D
C3543      C3544   1.533       .  S
C3543      C4642   1.489       .  S
C3544      C3546   1.557       .  S
C3545      H3551   1.087       .  S
C3545      C3546   1.370       .  D
C3546      C4661   1.490       .  S
C3547      H3552   1.077       .  S
C3548      C3978   1.506       .  S
C3553      C3554   1.556       .  S
C3553      C3559   1.526       .  S
C3553      C3557   1.546       .  S
C3553      C3570   1.534       .  S
C3554      H3561   1.084       .  S
C3554      C3555   1.389       .  D
C3555      C4610   1.502       .  S
C3556      C3560   1.526       .  S
C3556      H3562   1.111       .  S
C3557      H3563   1.087       .  S
C3557      C3558   1.367       .  D
C3558      C4626   1.480       .  S
C3559      H3564   1.073       .  S
C3560      C3982   1.483       .  S
O3565      C3580   1.267       .  A
O3565     Al3573   1.935   1_556  S
C3566      O3576   1.267       .  A
C3566      O3567   1.268       .  A
O3567     Al3569   1.913       .  S
O3568      C3570   1.264       .  A
O3568     Al3569   1.914       .  S
Al3569     O3577   1.900   1_554  S
Al3569     O3579   1.927   1_554  S
Al3569     O3578   1.788       .  S
C3570      O3583   1.265       .  A
O3571      C3581   1.263       .  A
O3571     Al3573   1.912       .  S
O3572      C3585   1.273       .  A
O3572     Al3582   1.963       .  S
Al3573     O3586   1.934   1_554  S
Al3573     O3583   1.957       .  S
Al3573     O3578   1.803       .  S
O3574      C3581   1.265       .  A
O3574     Al3582   1.921   1_554  S
O3575      C3584   1.274       .  A
O3575     Al3582   1.959       .  S
O3576     Al3582   1.954   1_554  S
O3577      C3584   1.260       .  A
O3578     Al3582   1.799   1_554  S
O3579      C3580   1.265       .  A
C3580      C3946   1.491       .  S
C3584      C3958   1.499       .  S
C3585      C3934   1.513       .  S
C3585      O3586   1.265       .  A
C3587      N3588   1.367       .  A
C3587      N3592   1.352       .  A
C3587      C4578   1.476       .  S
N3588      C3589   1.362       .  A
C3589      N3590   1.350       .  A
C3589      C4693   1.475       .  S
N3590      C3591   1.351       .  A
C3591      N3592   1.348       .  A
C3591      C4597   1.488       .  S
C3593      N3594   1.356       .  A
C3593      N3598   1.364   1_545  A
C3593      C4565   1.466   1_545  S
N3594      C3595   1.352       .  A
C3595      N3596   1.347       .  A
N3596      C3597   1.348       .  A
C3597      N3598   1.361   1_545  A
C3597      C4629   1.465   1_545  S
C3599      N3600   1.366       .  A
C3599      N3604   1.358       .  A
C3599      C4533   1.482       .  S
N3600      C3601   1.365       .  A
C3601      N3602   1.350       .  A
C3601      C4645   1.471       .  S
N3602      C3603   1.352       .  A
C3603      N3604   1.357       .  A
C3605      N3606   1.357       .  A
C3605      N3610   1.363       .  A
C3605      C4514   1.469       .  S
N3606      C3607   1.356       .  A
C3607      N3608   1.353       .  A
C3607      C4677   1.461       .  S
N3608      C3609   1.353       .  A
C3609      N3610   1.360       .  A
C3609      C4549   1.492       .  S
C3611      C3612   1.537       .  S
C3611      C3617   1.515       .  S
C3611      C3615   1.539       .  S
C3611      C3830   1.531       .  S
C3612      H3619   1.081       .  S
C3612      C3613   1.385       .  D
C3613      C3614   1.553       .  S
C3613      C4517   1.515       .  S
C3614      C3618   1.557       .  S
C3614      C3616   1.565       .  S
C3614      H3620   1.106       .  S
C3615      H3621   1.086   1_565  S
C3615      C3616   1.374       .  D
C3616      C4501   1.514       .  S
C3617      H3622   1.071       .  S
C3617      C3618   1.355       .  D
C3618      C3652   1.508       .  S
C3623      C3624   1.532       .  S
C3623      C3629   1.530       .  S
C3623      C3627   1.542       .  S
C3623      C3826   1.517       .  S
C3624      H3631   1.071       .  S
C3624      C3625   1.362       .  D
C3625      C3626   1.519       .  S
C3625      C3648   1.489       .  S
C3626      C3630   1.548       .  S
C3626      C3628   1.525       .  S
C3626      H3632   1.110       .  S
C3627      H3633   1.086       .  S
C3627      C3628   1.373       .  D
C3628      C4482   1.478       .  S
C3629      H3634   1.086       .  S
C3629      C3630   1.372       .  D
C3630      C4581   1.475       .  S
C3635      C3636   1.552       .  S
C3635      C3641   1.530       .  S
C3635      C3639   1.536       .  S
C3635      C3663   1.524       .  S
C3636      H3643   1.086       .  S
C3636      C3637   1.381       .  D
C3637      C3638   1.546       .  S
C3637      C4530   1.499       .  S
C3638      C3642   1.547       .  S
C3638      C3640   1.540       .  S
C3638      H3644   1.108       .  S
C3639      H3645   1.083       .  S
C3639      C3640   1.362       .  D
C3640      C4562   1.493       .  S
C3641      H3646   1.080       .  S
C3641      C3642   1.362       .  D
C3642      C3831   1.498       .  S
O3647      C3662   1.272       .  A
O3647     Al3655   1.961       .  S
C3648      O3658   1.272       .  A
C3648      O3649   1.262       .  A
O3649     Al3651   1.910       .  S
O3650      C3652   1.273       .  A
O3650     Al3651   1.963       .  S
Al3651     O3659   1.950       .  S
Al3651     O3661   1.922       .  S
Al3651     O3660   1.789       .  S
C3652      O3665   1.265       .  A
O3653      C3663   1.269       .  A
O3653     Al3655   1.934       .  S
O3654      C3667   1.272       .  A
O3654     Al3664   1.960       .  S
Al3655     O3668   1.935       .  S
Al3655     O3665   1.943       .  S
Al3655     O3660   1.787       .  S
O3656      C3663   1.265       .  A
O3656     Al3664   1.926       .  S
O3657      C3666   1.262       .  A
O3657     Al3664   1.915       .  S
O3658     Al3664   1.961       .  S
O3659      C3666   1.270       .  A
O3660     Al3664   1.790       .  S
O3661      C3662   1.263       .  A
C3662      C3806   1.496       .  S
C3666      C3794   1.489       .  S
C3667      C3782   1.504       .  S
C3667      O3668   1.268       .  A
C3669      N3670   1.359       .  A
C3669      C4485   1.452       .  S
C3671      N3672   1.358   1_455  A
N3672      C3673   1.366       .  A
C3673      N3674   1.343       .  A
C3673      C4466   1.489       .  S
C3675      N3676   1.371       .  A
C3675      C4498   1.504       .  S
C3677      N3678   1.366       .  A
N3678      C3679   1.363       .  A
C3679      N3680   1.359       .  A
C3679      C4469   1.507       .  S
C3681      C3682   1.535       .  S
C3681      C3687   1.534       .  S
C3681      C3685   1.550       .  S
C3681      C3718   1.527       .  S
C3682      C3683   1.372       .  D
C3683      C3684   1.555       .  S
C3683      C4450   1.490       .  S
C3684      C3688   1.553       .  S
C3684      C3686   1.542       .  S
C3684      H3690   1.109       .  S
C3685      H3691   1.086       .  S
C3685      C3686   1.371       .  D
C3686      C4434   1.502       .  S
C3687      H3692   1.083       .  S
C3687      C3688   1.364       .  D
C3688      C3888   1.506       .  S
C3693      C3694   1.537       .  S
C3693      C3699   1.526       .  S
C3693      C3697   1.530       .  S
C3693      C3733   1.504       .  S
C3694      C3695   1.355       .  D
C3695      C3696   1.530       .  S
C3695      C4418   1.476       .  S
C3696      C3700   1.546       .  S
C3696      C3698   1.565       .  S
C3696      H3702   1.110       .  S
C3697      C3698   1.373       .  D
C3698      C4402   1.492       .  S
C3699      H3704   1.072       .  S
C3699      C3700   1.358       .  D
C3700      C3884   1.498       .  S
C3705      C3706   1.556       .  S
C3705      C3711   1.528       .  S
C3705      C3709   1.535       .  S
C3705      C3722   1.536       .  S
C3706      H3713   1.085       .  S
C3706      C3707   1.393       .  D
C3707      C3708   1.549       .  S
C3707      C4370   1.501       .  S
C3708      C3712   1.547       .  S
C3708      C3710   1.558       .  S
C3708      H3714   1.109       .  S
C3709      C3710   1.349       .  D
C3710      C4386   1.505       .  S
C3711      H3716   1.078       .  S
C3711      C3712   1.359       .  D
C3712      C3889   1.503       .  S
O3717      C3732   1.263       .  A
O3717     Al3725   1.923       .  S
C3718      O3728   1.259       .  A
C3718      O3719   1.266   1_655  A
O3720     Al3721   1.918       .  S
Al3721     O3729   1.932       .  S
Al3721     O3731   1.936       .  S
Al3721     O3730   1.795       .  S
C3722      O3735   1.268       .  A
O3723     Al3725   1.902       .  S
O3724     Al3734   1.927   1_545  S
Al3725     O3738   1.940       .  S
Al3725     O3735   1.952       .  S
O3726     Al3734   1.891       .  S
O3727      C3736   1.263       .  A
O3727     Al3734   1.892       .  S
O3728     Al3734   1.897       .  S
C3732      C3845   1.528       .  S
C3736      C3833   1.520       .  S
C3737      C3857   1.534       .  S
C3739      N3740   1.374       .  A
C3739      N3744   1.358       .  A
C3739      C4389   1.505       .  S
N3740      C3741   1.371       .  A
C3741      N3742   1.357       .  A
C3741      C4338   1.498       .  S
N3742      C3743   1.353       .  A
C3743      N3744   1.352       .  A
C3743      C4354   1.471       .  S
C3745      N3746   1.363       .  A
C3745      N3750   1.353       .  A
C3745      C4421   1.475       .  S
C3747      N3748   1.356       .  A
C3747      C4322   1.471       .  S
N3748      C3749   1.348       .  A
C3749      C4357   1.451       .  S
C3751      N3752   1.358       .  A
C3751      N3756   1.358       .  A
C3751      C4405   1.476       .  S
N3752      C3753   1.359       .  A
N3754      C3755   1.349       .  A
C3755      C4290   1.492       .  S
C3757      N3758   1.365       .  A
C3757      N3762   1.356       .  A
C3757      C4274   1.471       .  S
N3758      C3759   1.363       .  A
C3759      N3760   1.351       .  A
N3760      C3761   1.353       .  A
C3761      N3762   1.353       .  A
C3761      C4309   1.484       .  S
C3763      N3764   1.375       .  A
C3763      N3768   1.356       .  A
C3763      C4437   1.509       .  S
N3764      C3765   1.372       .  A
C3765      N3766   1.351       .  A
C3765      C4242   1.479       .  S
N3766      C3767   1.347       .  A
C3767      N3768   1.350       .  A
C3767      C4258   1.483       .  S
C3769      N3770   1.359       .  A
C3769      N3774   1.349       .  A
C3769      C4373   1.479       .  S
N3770      C3771   1.361       .  A
C3771      N3772   1.352       .  A
C3771      C4226   1.440       .  S
N3772      C3773   1.344       .  A
C3773      N3774   1.350       .  A
C3773      C4261   1.489       .  S
C3775      C3776   1.553       .  S
C3775      C3781   1.532       .  S
C3775      C3779   1.547       .  S
C3775      C3827   1.535       .  S
C3776      H3783   1.080       .  S
C3776      C3777   1.374       .  D
C3777      C3778   1.540       .  S
C3777      C4277   1.514       .  S
C3778      C3782   1.547       .  S
C3778      C3780   1.549       .  S
C3778      H3784   1.107       .  S
C3779      H3785   1.084       .  S
C3779      C3780   1.378       .  D
C3780      C4341   1.505       .  S
C3781      H3786   1.082       .  S
C3781      C3782   1.362       .  D
C3787      C3788   1.528       .  S
C3787      C3793   1.525       .  S
C3787      C3791   1.538       .  S
C3787      C3816   1.520       .  S
C3788      H3795   1.086       .  S
C3788      C3789   1.357       .  D
C3789      C3790   1.540       .  S
C3789      C4229   1.478       .  S
C3790      C3794   1.539       .  S
C3790      C3792   1.550       .  S
C3790      H3796   1.109       .  S
C3791      C3792   1.383       .  D
C3792      C4293   1.500       .  S
C3793      H3798   1.075       .  S
C3793      C3794   1.359       .  D
C3799      C3800   1.540       .  S
C3799      C3805   1.523       .  S
C3799      C3803   1.546       .  S
C3799      C3812   1.524       .  S
C3800      C3801   1.365       .  D
C3801      C3802   1.541       .  S
C3801      C4325   1.484       .  S
C3802      C3806   1.547       .  S
C3802      C3804   1.557       .  S
C3802      H3808   1.107       .  S
C3803      H3809   1.085       .  S
C3803      C3804   1.385       .  D
C3804      C4245   1.510       .  S
C3805      H3810   1.076       .  S
C3805      C3806   1.352       .  D
O3811      C3826   1.264       .  A
O3811     Al3819   1.916       .  S
C3812      O3822   1.264       .  A
C3812      O3813   1.269       .  A
O3814      C3816   1.259       .  A
C3816      O3829   1.271       .  A
O3817      C3827   1.269   1_545  A
O3818      C3831   1.271       .  A
Al3819     O3829   1.953       .  S
O3820      C3827   1.268       .  A
O3821      C3830   1.273       .  A
O3821     Al3828   1.965       .  S
O3822     Al3828   1.931       .  S
O3823      C3830   1.261   1_545  A
O3825      C3826   1.268       .  A
C3831      O3832   1.268       .  A
C3833      C3834   1.523       .  S
C3833      C3839   1.524       .  S
C3833      C3837   1.563       .  S
C3834      H3841   1.087       .  S
C3834      C3835   1.360       .  D
C3835      C3836   1.568       .  S
C3835      C4210   1.527       .  S
C3836      C3840   1.560       .  S
C3836      C3838   1.514       .  S
C3836      H3842   1.100       .  S
C3837      H3843   1.085       .  S
C3837      C3838   1.386       .  D
C3838      C4194   1.490       .  S
C3839      H3844   1.081       .  S
C3839      C3840   1.364       .  D
C3840      C3870   1.508       .  S
C3845      C3846   1.532       .  S
C3845      C3851   1.547       .  S
C3845      C3849   1.538       .  S
C3846      H3853   1.069       .  S
C3846      C3847   1.357       .  D
C3847      C3848   1.511       .  S
C3847      C3885   1.483       .  S
C3848      C3852   1.535       .  S
C3848      C3850   1.535       .  S
C3848      H3854   1.107       .  S
C3849      H3855   1.085       .  S
C3849      C3850   1.373       .  D
C3850      C4165   1.468       .  S
C3851      H3856   1.083       .  S
C3851      C3852   1.387       .  D
C3852      C4178   1.508       .  S
C3857      C3858   1.537       .  S
C3857      C3863   1.526       .  S
C3857      C3861   1.537       .  S
C3858      H3865   1.087   1_655  S
C3858      C3859   1.365       .  D
C3859      C3860   1.539       .  S
C3859      C4146   1.491       .  S
C3860      C3864   1.559       .  S
C3860      C3862   1.573       .  S
C3860      H3866   1.095       .  S
C3861      H3867   1.082       .  S
C3861      C3862   1.391       .  D
C3862      C4130   1.534       .  S
C3863      H3868   1.077       .  S
C3863      C3864   1.360       .  D
C3864      C3874   1.521       .  S
O3869      C3884   1.276       .  A
O3869     Al3877   1.937       .  S
C3870      O3880   1.258       .  A
C3870      O3871   1.270       .  A
O3871     Al3873   1.950       .  S
O3872      C3874   1.268       .  A
O3872     Al3873   1.973       .  S
Al3873     O3881   1.926       .  S
Al3873     O3883   1.963       .  S
Al3873     O3882   1.796       .  S
C3874      O3887   1.261       .  A
O3875      C3885   1.274       .  A
O3875     Al3877   1.919       .  S
O3876      C3889   1.260       .  A
O3876     Al3886   1.930       .  S
Al3877     O3890   1.933       .  S
Al3877     O3887   1.938       .  S
Al3877     O3882   1.799       .  S
O3878      C3885   1.275       .  A
O3878     Al3886   1.948       .  S
O3879      C3888   1.270       .  A
O3879     Al3886   1.949       .  S
O3880     Al3886   1.917       .  S
O3881      C3888   1.265       .  A
O3882     Al3886   1.799       .  S
O3883      C3884   1.278       .  A
C3889      O3890   1.256       .  A
C3891      N3892   1.359       .  A
C3891      N3896   1.366       .  A
C3891      C4133   1.487       .  S
N3892      C3893   1.362       .  A
C3893      C4101   1.476       .  S
N3894      C3895   1.348       .  A
C3895      C4114   1.492   1_655  S
C3897      N3898   1.360       .  A
C3897      N3902   1.372       .  A
C3897      C4213   1.517       .  S
N3898      C3899   1.358       .  A
C3899      N3900   1.357       .  A
C3899      C4117   1.498   1_655  S
N3900      C3901   1.356       .  A
C3901      N3902   1.375       .  A
C3901      C4082   1.508       .  S
C3903      N3904   1.350       .  A
N3904      C3905   1.336       .  A
C3905      N3906   1.349       .  A
C3905      C4066   1.451       .  S
N3906      C3907   1.351       .  A
C3907      C4050   1.502       .  S
C3909      N3910   1.350       .  A
N3910      C3911   1.343       .  A
C3911      N3912   1.354       .  A
C3911      C4069   1.443       .  S
N3912      C3913   1.356       .  A
C3913      C4034   1.479       .  S
C3915      N3916   1.357       .  A
C3915      N3920   1.364       .  A
C3915      C4181   1.480       .  S
N3916      C3917   1.349       .  A
C3917      N3918   1.348       .  A
C3917      C4021   1.457       .  S
N3918      C3919   1.352       .  A
C3919      N3920   1.360       .  A
C3919      C4002   1.460       .  S
C3921      N3922   1.347       .  A
C3921      N3926   1.377   1_455  A
C3921      C4149   1.486   1_455  S
C3923      N3924   1.339       .  A
C3923      C4018   1.441       .  S
C3925      N3926   1.378   1_455  A
C3925      C3986   1.484   1_455  S
C3927      C3928   1.529       .  S
C3927      C3933   1.529       .  S
C3927      C3931   1.542       .  S
C3927      C3979   1.534       .  S
C3928      H3935   1.087       .  S
C3928      C3929   1.361       .  D
C3929      C3930   1.556       .  S
C3929      C4005   1.484       .  S
C3930      C3934   1.553       .  S
C3930      C3932   1.568       .  S
C3930      H3936   1.106       .  S
C3931      H3937   1.081       .  S
C3931      C3932   1.387       .  D
C3932      C4085   1.530       .  S
C3933      H3938   1.060       .  S
C3933      C3934   1.357       .  D
C3939      C3940   1.538       .  S
C3939      C3945   1.524       .  S
C3939      C3943   1.530       .  S
C3939      C3964   1.513       .  S
C3940      H3947   1.081       .  S
C3940      C3941   1.372       .  D
C3941      C4098   1.502       .  S
C3942      C3946   1.546       .  S
C3942      H3948   1.108       .  S
C3943      H3949   1.083       .  S
C3943      C3944   1.373       .  D
C3944      C4053   1.499       .  S
C3945      H3950   1.074       .  S
C3951      C3952   1.539       .  S
C3951      C3957   1.532       .  S
C3951      C3955   1.545       .  S
C3951      C3968   1.525       .  S
C3952      H3959   1.085       .  S
C3952      C3953   1.380       .  D
C3953      C4037   1.489       .  S
C3954      C3958   1.541       .  S
C3954      H3960   1.111       .  S
C3955      H3961   1.087       .  S
C3955      C3956   1.355       .  D
C3956      C3989   1.483       .  S
C3957      H3962   1.081   1_655  S
O3963      C3978   1.273       .  A
O3963     Al3971   1.964       .  S
C3964      O3974   1.254       .  A
C3964      O3965   1.264       .  A
O3965     Al3967   1.913   1_556  S
O3966      C3968   1.257       .  A
O3966     Al3967   1.878   1_556  S
Al3967     O3975   1.892       .  S
Al3967     O3977   1.914       .  S
Al3967     O3976   1.796       .  S
C3968      O3981   1.268       .  A
O3969      C3979   1.263       .  A
O3969     Al3971   1.931   1_556  S
O3970      C3983   1.253       .  A
O3970     Al3980   1.872       .  S
Al3971     O3984   1.981       .  S
Al3971     O3981   1.962   1_554  S
Al3971     O3976   1.806       .  S
O3972      C3979   1.271       .  A
O3972     Al3980   1.932   1_556  S
O3973      C3982   1.270       .  A
O3973     Al3980   1.945       .  S
O3974     Al3980   1.895   1_556  S
O3975      C3982   1.257       .  A
O3976     Al3980   1.795       .  S
O3977      C3978   1.262       .  A
C3983      O3984   1.280       .  A
C3985      C3986   1.396       .  A
C3985      C3990   1.410       .  A
C3985      H3992   1.082       .  S
C3986      C3987   1.423   1_655  A
C3987      C3988   1.393       .  A
C3988      C3989   1.389   1_455  A
C3989      C3990   1.421       .  A
C3990      C3991   1.502       .  S
C3991      H3995   1.108       .  S
C3991      H3996   1.103       .  S
C3991      H3997   1.105       .  S
C3994      H3998   1.111       .  S
C3994      H4000   1.110       .  S
C4001      C4002   1.406       .  A
C4001      C4006   1.403       .  A
C4001      H4008   1.083       .  S
C4002      C4003   1.399       .  A
C4003      C4010   1.497       .  S
C4003      C4004   1.396       .  A
C4004      C4005   1.409       .  A
C4004      H4009   1.082       .  S
C4005      C4006   1.401       .  A
C4006      C4007   1.499       .  S
C4007      H4011   1.108       .  S
C4007      H4012   1.110       .  S
C4007      H4013   1.110       .  S
C4010      H4014   1.110       .  S
C4010      H4015   1.107       .  S
C4010      H4016   1.111       .  S
C4017      C4018   1.406       .  A
C4017      C4022   1.409       .  A
C4017      H4024   1.084       .  S
C4018      C4019   1.406       .  A
C4019      C4026   1.510       .  S
C4019      C4020   1.365       .  A
C4020      C4021   1.398       .  A
C4020      H4025   1.084       .  S
C4021      C4022   1.407       .  A
C4022      C4023   1.498       .  S
C4023      H4027   1.098       .  S
C4023      H4028   1.108       .  S
C4023      H4029   1.109       .  S
C4026      H4032   1.111       .  S
C4033      C4034   1.407       .  A
C4033      C4038   1.403       .  A
C4033      H4040   1.084       .  S
C4035      C4042   1.504       .  S
C4035      C4036   1.405       .  A
C4036      C4037   1.407       .  A
C4036      H4041   1.076       .  S
C4038      C4039   1.508       .  S
C4039      H4043   1.110       .  S
C4039      H4044   1.111       .  S
C4039      H4045   1.109       .  S
C4042      H4046   1.110       .  S
C4042      H4047   1.108       .  S
C4042      H4048   1.110       .  S
C4049      C4054   1.411       .  A
C4049      H4056   1.084       .  S
C4050      C4051   1.432       .  A
C4051      C4058   1.511       .  S
C4051      C4052   1.403       .  A
C4052      H4057   1.085       .  S
C4053      C4054   1.426       .  A
C4054      C4055   1.505       .  S
C4055      H4059   1.111       .  S
C4055      H4060   1.106       .  S
C4055      H4061   1.110       .  S
C4058      H4062   1.108       .  S
C4058      H4063   1.107       .  S
C4058      H4064   1.110       .  S
C4065      C4066   1.404       .  A
C4065      C4070   1.408       .  A
C4065      H4072   1.084       .  S
C4066      C4067   1.412       .  A
C4067      C4074   1.508       .  S
C4067      C4068   1.364       .  A
C4068      C4069   1.386       .  A
C4068      H4073   1.083       .  S
C4069      C4070   1.413       .  A
C4070      C4071   1.501       .  S
C4071      H4075   1.110       .  S
C4071      H4076   1.107       .  S
C4071      H4077   1.109       .  S
C4074      H4078   1.105       .  S
C4074      H4079   1.101       .  S
C4074      H4080   1.110       .  S
C4081      C4082   1.409       .  A
C4081      C4086   1.411       .  A
C4081      H4088   1.084       .  S
C4082      C4083   1.410       .  A
C4083      C4090   1.499       .  S
C4083      C4084   1.413       .  A
C4084      C4085   1.414       .  A
C4084      H4089   1.077       .  S
C4085      C4086   1.425       .  A
C4086      C4087   1.507       .  S
C4087      H4091   1.111       .  S
C4087      H4092   1.110       .  S
C4087      H4093   1.108       .  S
C4090      H4094   1.104       .  S
C4090      H4095   1.109       .  S
C4090      H4096   1.107       .  S
C4097      C4098   1.411       .  A
C4097      C4102   1.399       .  A
C4098      C4099   1.417       .  A
C4099      C4106   1.507       .  S
C4099      C4100   1.399       .  A
C4100      C4101   1.406       .  A
C4100      H4105   1.083       .  S
C4101      C4102   1.407       .  A
C4103      H4107   1.109       .  S
C4103      H4108   1.109       .  S
C4103      H4109   1.106       .  S
C4106      H4110   1.109       .  S
C4106      H4111   1.111       .  S
C4106      H4112   1.111       .  S
C4113      C4114   1.407       .  A
C4113      C4118   1.403   1_545  A
C4113      H4120   1.076       .  S
C4114      C4115   1.428       .  A
C4115      C4122   1.504       .  S
C4115      C4116   1.406   1_545  A
C4116      C4117   1.402       .  A
C4116      H4121   1.084       .  S
C4117      C4118   1.406       .  A
C4118      C4119   1.498       .  S
C4119      H4123   1.110   1_565  S
C4119      H4124   1.102       .  S
C4119      H4125   1.110       .  S
C4122      H4126   1.110   1_445  S
C4122      H4127   1.104   1_455  S
C4122      H4128   1.111       .  S
C4129      C4130   1.417       .  A
C4129      C4134   1.407       .  A
C4129      H4136   1.080       .  S
C4130      C4131   1.430       .  A
C4131      C4138   1.505       .  S
C4131      C4132   1.412       .  A
C4132      C4133   1.399       .  A
C4132      H4137   1.084       .  S
C4133      C4134   1.405       .  A
C4134      C4135   1.505       .  S
C4135      H4139   1.110       .  S
C4135      H4141   1.105       .  S
C4138      H4142   1.107       .  S
C4138      H4143   1.106       .  S
C4138      H4144   1.110       .  S
C4145      C4146   1.402       .  A
C4145      C4150   1.397       .  A
C4145      H4152   1.084       .  S
C4146      C4147   1.397       .  A
C4147      C4154   1.502       .  S
C4147      C4148   1.411       .  A
C4148      C4149   1.404       .  A
C4148      H4153   1.068       .  S
C4149      C4150   1.417       .  A
C4150      C4151   1.490   1_655  S
C4151      H4155   1.110   1_455  S
C4151      H4156   1.100       .  S
C4151      H4157   1.110       .  S
C4154      H4158   1.104       .  S
C4154      H4159   1.110   1_655  S
C4154      H4160   1.099       .  S
C4161      C4162   1.405       .  A
C4161      C4166   1.405       .  A
C4161      H4168   1.084       .  S
C4162      C4163   1.424       .  A
C4163      C4164   1.393       .  A
C4164      C4165   1.391       .  A
C4164      H4169   1.085       .  S
C4165      C4166   1.415       .  A
C4166      C4167   1.509       .  S
C4167      H4171   1.110       .  S
C4167      H4172   1.110       .  S
C4167      H4173   1.103       .  S
C4170      H4174   1.110       .  S
C4170      H4176   1.108   1_565  S
C4177      C4178   1.420       .  A
C4177      C4182   1.398       .  A
C4177      H4184   1.074       .  S
C4178      C4179   1.414       .  A
C4179      C4186   1.507       .  S
C4179      C4180   1.399       .  A
C4180      C4181   1.411       .  A
C4180      H4185   1.084       .  S
C4181      C4182   1.403       .  A
C4182      C4183   1.509       .  S
C4183      H4187   1.110       .  S
C4183      H4188   1.109       .  S
C4183      H4189   1.111       .  S
C4186      H4190   1.111       .  S
C4186      H4191   1.108       .  S
C4186      H4192   1.111       .  S
C4193      C4194   1.399       .  A
C4194      C4195   1.429       .  A
C4195      C4202   1.510       .  S
C4195      C4196   1.405       .  A
C4196      C4197   1.397       .  A
C4196      H4201   1.085       .  S
C4198      C4199   1.496       .  S
C4199      H4203   1.102       .  S
C4199      H4204   1.110       .  S
C4199      H4205   1.109       .  S
C4202      H4206   1.105       .  S
C4202      H4207   1.110       .  S
C4202      H4208   1.107       .  S
C4209      C4210   1.412       .  A
C4209      C4214   1.400       .  A
C4209      H4216   1.082       .  S
C4210      C4211   1.408       .  A
C4211      C4218   1.492       .  S
C4211      C4212   1.422       .  A
C4212      C4213   1.414       .  A
C4212      H4217   1.084       .  S
C4213      C4214   1.428       .  A
C4214      C4215   1.513       .  S
C4215      H4219   1.111       .  S
C4215      H4220   1.109       .  S
C4215      H4221   1.099       .  S
C4218      H4222   1.106       .  S
C4218      H4223   1.108       .  S
C4218      H4224   1.104       .  S
C4225      C4226   1.388       .  A
C4225      C4230   1.393       .  A
C4225      H4232   1.086       .  S
C4226      C4227   1.408       .  A
C4227      C4234   1.504       .  S
C4227      C4228   1.395       .  A
C4228      C4229   1.400       .  A
C4228      H4233   1.084       .  S
C4229      C4230   1.432       .  A
C4230      C4231   1.514       .  S
C4231      H4235   1.110       .  S
C4231      H4236   1.106       .  S
C4231      H4237   1.100       .  S
C4234      H4238   1.110       .  S
C4234      H4239   1.110       .  S
C4234      H4240   1.110       .  S
C4241      C4242   1.401       .  A
C4241      C4246   1.407       .  A
C4241      H4248   1.083       .  S
C4242      C4243   1.409       .  A
C4243      C4250   1.508       .  S
C4243      C4244   1.412       .  A
C4244      C4245   1.414       .  A
C4244      H4249   1.083       .  S
C4245      C4246   1.420       .  A
C4246      C4247   1.507       .  S
C4247      H4251   1.110       .  S
C4247      H4252   1.106       .  S
C4247      H4253   1.110       .  S
C4250      H4254   1.108       .  S
C4250      H4255   1.110       .  S
C4250      H4256   1.108       .  S
C4257      C4258   1.417       .  A
C4257      C4262   1.407       .  A
C4257      H4264   1.083       .  S
C4258      C4259   1.424       .  A
C4259      C4266   1.509       .  S
C4259      C4260   1.404       .  A
C4260      C4261   1.396       .  A
C4260      H4265   1.083       .  S
C4261      C4262   1.407       .  A
C4262      C4263   1.501       .  S
C4263      H4267   1.111       .  S
C4263      H4268   1.110       .  S
C4263      H4269   1.110       .  S
C4266      H4270   1.110       .  S
C4266      H4271   1.106       .  S
C4266      H4272   1.110       .  S
C4273      C4274   1.396       .  A
C4273      C4278   1.407       .  A
C4274      C4275   1.408       .  A
C4275      C4282   1.508       .  S
C4275      C4276   1.403       .  A
C4276      C4277   1.412       .  A
C4276      H4281   1.083       .  S
C4277      C4278   1.430       .  A
C4279      H4283   1.110       .  S
C4279      H4284   1.109       .  S
C4279      H4285   1.105       .  S
C4282      H4286   1.109       .  S
C4282      H4287   1.109       .  S
C4282      H4288   1.110       .  S
C4289      H4296   1.083       .  S
C4290      C4291   1.414       .  A
C4291      C4298   1.507       .  S
C4291      C4292   1.400       .  A
C4292      C4293   1.408       .  A
C4292      H4297   1.075       .  S
C4293      C4294   1.410       .  A
C4295      H4299   1.110       .  S
C4295      H4300   1.111       .  S
C4298      H4302   1.110       .  S
C4298      H4303   1.109       .  S
C4298      H4304   1.108       .  S
C4305      C4306   1.409       .  A
C4305      C4310   1.412       .  A
C4305      H4312   1.079       .  S
C4307      C4314   1.501       .  S
C4307      C4308   1.402       .  A
C4308      H4313   1.081       .  S
C4309      C4310   1.427       .  A
C4310      C4311   1.506       .  S
C4311      H4315   1.109       .  S
C4311      H4316   1.110       .  S
C4311      H4317   1.111       .  S
C4314      H4318   1.109       .  S
C4314      H4319   1.108       .  S
C4314      H4320   1.111       .  S
C4321      C4322   1.405       .  A
C4321      C4326   1.398       .  A
C4322      C4323   1.407       .  A
C4323      C4330   1.505       .  S
C4323      C4324   1.405       .  A
C4324      C4325   1.412       .  A
C4324      H4329   1.084       .  S
C4325      C4326   1.406       .  A
C4326      C4327   1.507   1_565  S
C4327      H4332   1.109   1_545  S
C4330      H4334   1.106       .  S
C4330      H4335   1.108   1_565  S
C4330      H4336   1.111       .  S
C4337      C4338   1.403       .  A
C4337      C4342   1.417       .  A
C4338      C4339   1.424       .  A
C4339      C4346   1.505       .  S
C4339      C4340   1.402       .  A
C4340      C4341   1.396       .  A
C4340      H4345   1.085       .  S
C4341      C4342   1.423       .  A
C4343      H4347   1.108       .  S
C4343      H4348   1.102       .  S
C4343      H4349   1.108       .  S
C4346      H4350   1.107       .  S
C4346      H4351   1.105       .  S
C4346      H4352   1.111       .  S
C4353      C4358   1.372       .  A
C4353      H4360   1.081       .  S
C4354      C4355   1.408       .  A
C4355      C4362   1.498       .  S
C4355      C4356   1.413       .  A
C4356      C4357   1.407       .  A
C4356      H4361   1.084       .  S
C4358      C4359   1.515       .  S
C4359      H4363   1.109       .  S
C4359      H4364   1.102       .  S
C4359      H4365   1.110       .  S
C4362      H4366   1.110       .  S
C4362      H4367   1.111       .  S
C4362      H4368   1.110       .  S
C4369      C4370   1.404       .  A
C4369      C4374   1.384       .  A
C4369      H4376   1.074       .  S
C4370      C4371   1.414       .  A
C4371      C4378   1.505       .  S
C4371      C4372   1.413       .  A
C4372      C4373   1.412       .  A
C4372      H4377   1.084       .  S
C4373      C4374   1.413       .  A
C4374      C4375   1.516       .  S
C4375      H4379   1.109       .  S
C4375      H4380   1.107       .  S
C4375      H4381   1.109       .  S
C4378      H4382   1.108       .  S
C4378      H4383   1.105       .  S
C4378      H4384   1.111       .  S
C4385      C4390   1.408       .  A
C4385      H4392   1.082       .  S
C4386      C4387   1.403       .  A
C4387      C4394   1.505       .  S
C4387      C4388   1.405       .  A
C4388      H4393   1.083       .  S
C4389      C4390   1.412       .  A
C4390      C4391   1.506       .  S
C4391      H4395   1.111       .  S
C4391      H4396   1.101       .  S
C4391      H4397   1.108       .  S
C4394      H4398   1.109       .  S
C4394      H4399   1.110       .  S
C4394      H4400   1.110       .  S
C4401      C4402   1.396       .  A
C4401      C4406   1.394       .  A
C4401      H4408   1.084       .  S
C4402      C4403   1.425   1_655  A
C4403      C4410   1.506       .  S
C4403      C4404   1.408   1_455  A
C4404      C4405   1.398       .  A
C4404      H4409   1.084   1_655  S
C4405      C4406   1.412       .  A
C4406      C4407   1.495       .  S
C4407      H4411   1.109       .  S
C4407      H4412   1.102       .  S
C4407      H4413   1.108       .  S
C4410      H4414   1.107       .  S
C4410      H4416   1.111       .  S
C4417      C4422   1.400       .  A
C4417      H4424   1.076       .  S
C4418      C4419   1.398       .  A
C4419      C4426   1.506       .  S
C4419      C4420   1.397       .  A
C4420      C4421   1.412       .  A
C4420      H4425   1.079       .  S
C4422      C4423   1.508       .  S
C4423      H4427   1.110       .  S
C4423      H4428   1.108       .  S
C4423      H4429   1.106   1_545  S
C4426      H4430   1.110       .  S
C4426      H4431   1.111       .  S
C4426      H4432   1.109       .  S
C4433      C4434   1.410       .  A
C4433      C4438   1.411       .  A
C4433      H4440   1.083       .  S
C4434      C4435   1.411       .  A
C4435      C4442   1.507       .  S
C4435      C4436   1.403       .  A
C4436      C4437   1.412       .  A
C4436      H4441   1.079       .  S
C4437      C4438   1.413       .  A
C4438      C4439   1.493       .  S
C4439      H4443   1.106       .  S
C4439      H4444   1.108       .  S
C4439      H4445   1.105       .  S
C4442      H4446   1.107       .  S
C4442      H4447   1.111       .  S
C4442      H4448   1.111       .  S
C4449      C4450   1.405       .  A
C4449      C4454   1.408       .  A
C4449      H4456   1.081       .  S
C4451      C4458   1.504       .  S
C4451      C4452   1.407       .  A
C4452      H4457   1.083       .  S
C4453      C4454   1.407       .  A
C4454      C4455   1.505       .  S
C4455      H4459   1.107       .  S
C4455      H4460   1.110       .  S
C4455      H4461   1.110       .  S
C4458      H4462   1.111       .  S
C4458      H4463   1.111       .  S
C4458      H4464   1.110       .  S
C4465      C4466   1.382       .  A
C4465      C4470   1.404       .  A
C4465      H4472   1.079       .  S
C4466      C4467   1.406       .  A
C4467      C4474   1.502       .  S
C4467      C4468   1.406       .  A
C4468      C4469   1.418       .  A
C4468      H4473   1.083       .  S
C4469      C4470   1.439       .  A
C4470      C4471   1.484       .  S
C4471      H4475   1.110       .  S
C4471      H4476   1.108       .  S
C4471      H4477   1.080       .  S
C4474      H4478   1.109       .  S
C4474      H4479   1.110       .  S
C4474      H4480   1.109       .  S
C4481      C4482   1.411       .  A
C4481      C4486   1.390       .  A
C4481      H4488   1.072       .  S
C4482      C4483   1.409       .  A
C4483      C4490   1.508       .  S
C4483      C4484   1.395       .  A
C4484      C4485   1.407       .  A
C4485      C4486   1.399       .  A
C4486      C4487   1.511       .  S
C4487      H4491   1.110       .  S
C4487      H4492   1.109       .  S
C4487      H4493   1.110       .  S
C4490      H4494   1.107       .  S
C4490      H4495   1.110       .  S
C4497      C4498   1.396       .  A
C4497      C4502   1.410   1_545  A
C4497      H4504   1.080       .  S
C4498      C4499   1.420       .  A
C4499      C4500   1.418       .  A
C4500      C4501   1.405   1_545  A
C4500      H4505   1.083   1_545  S
C4501      C4502   1.427       .  A
C4502      C4503   1.504       .  S
C4503      H4507   1.104       .  S
C4503      H4508   1.109   1_565  S
C4503      H4509   1.093       .  S
C4506      H4510   1.105       .  S
C4506      H4511   1.109       .  S
C4506      H4512   1.111       .  S
C4513      C4514   1.401       .  A
C4513      C4518   1.406       .  A
C4513      H4520   1.084       .  S
C4514      C4515   1.405       .  A
C4515      C4522   1.508       .  S
C4515      C4516   1.401       .  A
C4516      C4517   1.414       .  A
C4516      H4521   1.076       .  S
C4517      C4518   1.420       .  A
C4518      C4519   1.505       .  S
C4519      H4523   1.110       .  S
C4519      H4524   1.109       .  S
C4519      H4525   1.102       .  S
C4522      H4526   1.110       .  S
C4522      H4527   1.111       .  S
C4522      H4528   1.111       .  S
C4529      C4530   1.411       .  A
C4529      C4534   1.412       .  A
C4529      H4536   1.079       .  S
C4530      C4531   1.412       .  A
C4531      C4538   1.506       .  S
C4531      C4532   1.405       .  A
C4532      C4533   1.401       .  A
C4532      H4537   1.085       .  S
C4533      C4534   1.410       .  A
C4534      C4535   1.506       .  S
C4535      H4539   1.110       .  S
C4535      H4540   1.111       .  S
C4535      H4541   1.109       .  S
C4538      H4542   1.105       .  S
C4545      C4546   1.400       .  A
C4545      C4550   1.398   1_455  A
C4545      H4552   1.084       .  S
C4546      C4547   1.412   1_455  A
C4547      C4548   1.401       .  A
C4548      C4549   1.409       .  A
C4548      H4553   1.084       .  S
C4549      C4550   1.414       .  A
C4550      C4551   1.490       .  S
C4551      H4555   1.111   1_565  S
C4551      H4556   1.110       .  S
C4551      H4557   1.102       .  S
C4554      H4558   1.110       .  S
C4554      H4559   1.111       .  S
C4554      H4560   1.110       .  S
C4561      C4562   1.404       .  A
C4561      C4566   1.400   1_565  A
C4561      H4568   1.085   1_565  S
C4562      C4563   1.429       .  A
C4563      C4570   1.512       .  S
C4563      C4564   1.402       .  A
C4564      C4565   1.395       .  A
C4564      H4569   1.085       .  S
C4565      C4566   1.411   1_565  A
C4566      C4567   1.507       .  S
C4567      H4571   1.111       .  S
C4567      H4572   1.108       .  S
C4567      H4573   1.110       .  S
C4570      H4574   1.105       .  S
C4570      H4575   1.108       .  S
C4570      H4576   1.111       .  S
C4577      C4578   1.407       .  A
C4577      C4582   1.398       .  A
C4577      H4584   1.084       .  S
C4578      C4579   1.415       .  A
C4579      C4586   1.508       .  S
C4579      C4580   1.402       .  A
C4580      C4581   1.407       .  A
C4580      H4585   1.084       .  S
C4581      C4582   1.407       .  A
C4582      C4583   1.505       .  S
C4583      H4587   1.110       .  S
C4583      H4588   1.104       .  S
C4583      H4589   1.108       .  S
C4586      H4590   1.110       .  S
C4586      H4591   1.110       .  S
C4586      H4592   1.111       .  S
C4593      C4594   1.407       .  A
C4593      C4598   1.399       .  A
C4593      H4600   1.083       .  S
C4594      C4595   1.422       .  A
C4595      C4602   1.510       .  S
C4595      C4596   1.405       .  A
C4596      C4597   1.403       .  A
C4596      H4601   1.084       .  S
C4597      C4598   1.412       .  A
C4598      C4599   1.503       .  S
C4599      H4603   1.107       .  S
C4599      H4604   1.111       .  S
C4599      H4605   1.109       .  S
C4602      H4606   1.104       .  S
C4602      H4607   1.109       .  S
C4602      H4608   1.110       .  S
C4609      C4614   1.403       .  A
C4609      H4616   1.086       .  S
C4610      C4611   1.414       .  A
C4611      C4618   1.496       .  S
C4611      C4612   1.418       .  A
C4612      C4613   1.411   1_565  A
C4612      H4617   1.083       .  S
C4614      C4615   1.493       .  S
C4615      H4619   1.106       .  S
C4615      H4620   1.104       .  S
C4615      H4621   1.104       .  S
C4618      H4622   1.110       .  S
C4618      H4623   1.102       .  S
C4618      H4624   1.106       .  S
C4625      C4626   1.403       .  A
C4625      C4630   1.401       .  A
C4625      H4632   1.073       .  S
C4626      C4627   1.405       .  A
C4627      C4634   1.504   1_565  S
C4627      C4628   1.406       .  A
C4628      C4629   1.408       .  A
C4628      H4633   1.084   1_565  S
C4629      C4630   1.406       .  A
C4630      C4631   1.507       .  S
C4631      H4635   1.111       .  S
C4631      H4636   1.110       .  S
C4631      H4637   1.111       .  S
C4634      H4638   1.110   1_545  S
C4634      H4640   1.110       .  S
C4641      C4642   1.403       .  A
C4641      C4646   1.394       .  A
C4641      H4648   1.082       .  S
C4642      C4643   1.415       .  A
C4643      C4644   1.408       .  A
C4644      C4645   1.402       .  A
C4645      C4646   1.400       .  A
C4646      C4647   1.494       .  S
C4647      H4651   1.103       .  S
C4647      H4652   1.108       .  S
C4647      H4653   1.107       .  S
C4650      H4654   1.108       .  S
C4650      H4655   1.108       .  S
C4650      H4656   1.110       .  S
C4657      C4662   1.411       .  A
C4657      H4664   1.084       .  S
C4658      C4659   1.404       .  A
C4659      C4666   1.504       .  S
C4659      C4660   1.402       .  A
C4660      C4661   1.405       .  A
C4660      H4665   1.083       .  S
C4662      C4663   1.504       .  S
C4663      H4667   1.111       .  S
C4663      H4668   1.110       .  S
C4663      H4669   1.107       .  S
C4666      H4670   1.110       .  S
C4666      H4671   1.108       .  S
C4666      H4672   1.110       .  S
C4673      C4674   1.398       .  A
C4673      C4678   1.396       .  A
C4673      H4680   1.085       .  S
C4674      C4675   1.421       .  A
C4675      C4682   1.509       .  S
C4675      C4676   1.400       .  A
C4676      C4677   1.394       .  A
C4676      H4681   1.084       .  S
C4677      C4678   1.412       .  A
C4678      C4679   1.505       .  S
C4679      H4683   1.109       .  S
C4679      H4684   1.108       .  S
C4679      H4685   1.111       .  S
C4682      H4686   1.098       .  S
C4682      H4687   1.108       .  S
C4682      H4688   1.111       .  S
C4689      C4690   1.411       .  A
C4689      C4694   1.408       .  A
C4689      H4696   1.081       .  S
C4690      C4691   1.402       .  A
C4691      C4698   1.503       .  S
C4691      C4692   1.399       .  A
C4692      C4693   1.407       .  A
C4692      H4697   1.080       .  S
C4693      C4694   1.403       .  A
C4694      C4695   1.502       .  S
C4695      H4699   1.108       .  S
C4695      H4700   1.110       .  S
C4695      H4701   1.110       .  S
C4698      H4702   1.111       .  S
C4698      H4703   1.105       .  S
C4698      H4704   1.106       .  S
