geometry optimzed in LAMMPS
_audit_creation_date              2020-11-30 
_audit_creation_method            'lammps2cif' 
_symmetry_space_group_name_H-M    'P1' 
_symmetry_Int_Tables_number       1 
_symmetry_cell_setting            triclinic 
loop_ 
_symmetry_equiv_pos_as_xyz 
  x,y,z 
_cell_length_a                    50.5709609 
_cell_length_b                    50.78694354629232 
_cell_length_c                    65.7559760447494 
_cell_angle_alpha                 89.71129948152829 
_cell_angle_beta                  89.76100673955074 
_cell_angle_gamma                 119.7454258943251 
loop_ 
_atom_site_label 
_atom_site_type_symbol 
_atom_site_fract_x 
_atom_site_fract_y 
_atom_site_fract_z 
_atom_site_charge 
C1          C  0.09870878  0.41481197  0.91176576    -0.02100
C2          C  0.32214687  0.40980388  0.90973622    -0.02100
C3          C  0.09347733  0.17378569  0.91204675    -0.02100
O4          O  0.16227489  0.37436831  0.80386441    -0.81400
C5          C  0.13266956  0.27170781  0.85139613     0.98000
O6          O  0.12156826  0.28858276  0.84766128    -0.70500
O7          O  0.12351901  0.34000705  0.83888002    -0.74100
Al8        Al  0.12577154  0.30990790  0.82271864     1.49000
C9          C  0.14267631  0.36358228  0.84804877     0.93200
O10         O  0.22103336  0.37174908  0.83846779    -0.80300
O11         O  0.21928731  0.33172648  0.80726182    -0.73900
Al12       Al  0.18914767  0.36851523  0.82099773     1.90100
O13         O  0.20637263  0.32492805  0.84800491    -0.72900
O14         O  0.16508055  0.28289352  0.79978437    -0.72800
O15         O  0.15487241  0.27409035  0.84112615    -0.78400
O16         O  0.11939851  0.27547632  0.80671905    -0.76600
O17         O  0.16646282  0.32797101  0.82251987    -1.12800
O18         O  0.12391295  0.32914226  0.79799135    -0.72000
C19         C  0.13763199  0.35748804  0.79489098     0.98800
C20         C  0.22359310  0.35316650  0.84999016     0.95100
Al21       Al  0.18470365  0.30542370  0.82384293     1.55600
O22         O  0.17085208  0.37508006  0.84450040    -0.76600
C23         C  0.13655413  0.26809610  0.79718659     0.99300
C24         C  0.22623051  0.35471338  0.79623088     0.94200
O25         O  0.21050450  0.36772834  0.79699013    -0.81900
N26         N  0.27645822  0.03171461  0.02472009    -0.36200
N27         N  0.21977442  0.50478904  0.00101364    -0.56700
N28         N  0.25002537  0.48627448  0.97198531    -0.36200
N29         N  0.30301719  0.50645586  0.99765774    -0.56700
C30         C  0.25772823  0.03635094  0.03716186     0.27400
C31         C  0.30075629  0.03584736  0.03582184     0.27400
C32         C  0.22010240  0.46958264  0.96748524     0.27400
C33         C  0.26348426  0.47052044  0.96549729     0.27400
C34         C  0.21754292  0.02739009  0.01189828     0.36000
C35         C  0.20190172  0.50008985  0.98462401     0.36000
C36         C  0.32966675  0.02763401  0.00796257     0.36000
C37         C  0.31403053  0.50209651  0.98000873     0.36000
C38         C  0.27044872  0.04393620  0.05633967    -0.21500
C39         C  0.29743109  0.04373356  0.05550943    -0.21500
C40         C  0.21422022  0.44230965  0.95894461    -0.21500
C41         C  0.24169690  0.44292965  0.95764337    -0.21500
C42         C  0.19573756  0.03314408  0.00353893    -0.22500
C43         C  0.18567916  0.51526894  0.98693194    -0.22500
C44         C  0.35633946  0.03345362  0.99796752    -0.22500
C45         C  0.34545654  0.51611366  0.98073971    -0.22500
C46         C  0.23130634  0.03728583  0.03111532    -0.17900
C47         C  0.32721829  0.03588089  0.02817483    -0.17900
C48         C  0.29532571  0.48214840  0.96474380    -0.17900
C49         C  0.19927880  0.48049442  0.96858512    -0.17900
H50         H  0.26201617  0.05033362  0.06946227     0.15000
H51         H  0.31326525  0.05027969  0.06795583     0.15000
H52         H  0.19256555  0.42436402  0.95354896     0.15000
H53         H  0.24536613  0.42544725  0.95115404     0.15000
H54         H  0.18641870  0.04641225  0.00994408     0.13300
H55         H  0.16991965  0.51642035  0.97639621     0.13300
H56         H  0.37938178  0.04478653  0.00355274     0.13300
H57         H  0.36099576  0.51700852  0.96905245     0.13300
H58         H  0.27448571  0.02950462  0.00905437     0.26600
H59         H  0.26131464  0.50893515  0.97645628     0.26600
C60         C  0.18636287  0.09702518  0.08682070    -0.02100
C61         C  0.41560107  0.31788214  0.08736071    -0.02100
C62         C  0.42160232  0.09489950  0.08860292    -0.02100
O63         O  0.38003117  0.16458004  0.20279707    -0.81400
C64         C  0.28132778  0.13930072  0.14967284     0.98000
O65         O  0.28395953  0.12068111  0.16106215    -0.70500
O66         O  0.33606027  0.12207693  0.15326479    -0.74100
Al67       Al  0.31691663  0.12465540  0.17768459     1.49000
C68         C  0.36450461  0.13379910  0.15075802     0.93200
O69         O  0.38312711  0.20624618  0.15367013    -0.80300
O70         O  0.33719341  0.20848318  0.20104887    -0.73900
Al71       Al  0.37881958  0.18430462  0.17819287     1.90100
O72         O  0.34784043  0.21836897  0.15974422    -0.72900
O73         O  0.28495285  0.15849193  0.19269319    -0.72800
O74         O  0.29838673  0.16745090  0.15204362    -0.78400
O75         O  0.29508407  0.12283092  0.20202845    -0.76600
O76         O  0.33821143  0.16518872  0.17761368    -1.12800
O77         O  0.34511420  0.11895965  0.19381778    -0.72000
C78         C  0.36866521  0.13616595  0.20383126     0.98800
C79         C  0.37050627  0.22168559  0.14960632     0.95100
Al80       Al  0.31877158  0.18636724  0.17661109     1.55600
O81         O  0.38277035  0.15545413  0.16182558    -0.76600
C82         C  0.27842189  0.13488971  0.20290270     0.99300
C83         C  0.36566808  0.22422513  0.20339219     0.94200
O84         O  0.38343853  0.21746305  0.19420339    -0.81900
N85         N  0.03342613  0.26307133  0.97606253    -0.36200
N86         N  0.02199331  0.29969448  0.00547723    -0.56700
N87         N  0.51052834  0.25315547  0.03683131    -0.36200
N88         N  0.02693897  0.22034916  0.00839870    -0.56700
C89         C  0.04371997  0.28928645  0.96534723     0.27400
C90         C  0.04339477  0.24607672  0.96634495     0.27400
C91         C  0.50910814  0.27440026  0.04825618     0.27400
C92         C  0.51200916  0.23326114  0.04978040     0.27400
C93         C  0.02622004  0.31676626  0.98871574     0.36000
C94         C  0.50957020  0.30803252  0.02082453     0.36000
C95         C  0.02771806  0.20462996  0.99208786     0.36000
C96         C  0.51232152  0.19745894  0.02441272     0.36000
C97         C  0.05909443  0.28802896  0.94810888    -0.21500
C98         C  0.05922130  0.26113255  0.94889342    -0.21500
C99         C  0.51030067  0.26838471  0.06869005    -0.21500
C100        C  0.51228360  0.24237718  0.06966361    -0.21500
C101        C  0.01783902  0.33846797  0.99282503    -0.22500
C102        C  0.50675574  0.33208782  0.01352731    -0.22500
C103        C  0.01800894  0.17482830  0.99758716    -0.22500
C104        C  0.50597246  0.16901899  0.01786620    -0.22500
C105        C  0.03946358  0.31427387  0.97033857    -0.17900
C106        C  0.03825169  0.21707959  0.97247222    -0.17900
C107        C  0.50673261  0.20432624  0.04424946    -0.17900
C108        C  0.50213870  0.29618066  0.04075447    -0.17900
H109        H  0.06927824  0.30465780  0.93601629     0.15000
H110        H  0.06989308  0.25364236  0.93779671     0.15000
H111        H  0.50848941  0.28069317  0.08151480     0.15000
H112        H  0.51199338  0.23042459  0.08341476     0.15000
H113        H  0.01943046  0.35627057  0.98295869     0.13300
H114        H  0.49828085  0.34495339  0.02158699     0.13300
H115        H  0.01633728  0.15688658  0.98791683     0.13300
H116        H  0.49620506  0.14817074  0.02664675     0.13300
H117        H  0.01863159  0.25616179  0.98836267     0.26600
H118        H  0.50444665  0.24906994  0.02170086     0.26600
N119        N  0.24447201  0.25531371  0.96921147    -0.36200
N120        N  0.21038330  0.20898417  0.99975841    -0.56700
N121        N  0.26019334  0.24379078  0.02885290    -0.36200
N122        N  0.29446341  0.28813336  0.99794465    -0.56700
C123        C  0.21597237  0.24090455  0.96142784     0.27400
C124        C  0.25819186  0.28394087  0.96159755     0.27400
C125        C  0.24336469  0.21625951  0.03783560     0.27400
C126        C  0.28886725  0.25595677  0.03630931     0.27400
C127        C  0.18807263  0.20133581  0.98588833     0.36000
C128        C  0.19637546  0.19855288  0.01795653     0.36000
C129        C  0.30505226  0.30858712  0.98257496     0.36000
C130        C  0.31512685  0.30006626  0.01301228     0.36000
C131        C  0.21113376  0.26105052  0.94993227    -0.21500
C132        C  0.23795261  0.28781265  0.94947635    -0.21500
C133        C  0.26183957  0.21069624  0.05065057    -0.21500
C134        C  0.29030218  0.23587770  0.04996460    -0.21500
C135        C  0.15996758  0.18812659  0.99564639    -0.22500
C136        C  0.16518759  0.18580012  0.01589421    -0.22500
C137        C  0.33265420  0.33348320  0.98780106    -0.22500
C138        C  0.33884776  0.32825251  0.00719825    -0.22500
C139        C  0.19348524  0.21039679  0.96519419    -0.17900
C140        C  0.28843246  0.30705367  0.96506389    -0.17900
C141        C  0.31386940  0.28477761  0.03128950    -0.17900
C142        C  0.21139397  0.19715465  0.03564822    -0.17900
H143        H  0.19019092  0.25711845  0.94288503     0.15000
H144        H  0.24167445  0.30811719  0.94156437     0.15000
H145        H  0.25569328  0.19054838  0.05955606     0.15000
H146        H  0.30999955  0.23876379  0.05826462     0.15000
H147        H  0.13811388  0.18225481  0.98916178     0.13300
H148        H  0.14806385  0.17604787  0.02778640     0.13300
H149        H  0.34633377  0.35382339  0.97887240     0.13300
H150        H  0.35861351  0.34346769  0.01595750     0.13300
H151        H  0.25463398  0.24543520  0.97776725     0.26600
H152        H  0.25168142  0.25461175  0.01964668     0.26600
C153        C  0.01481581  0.25107001  0.41793294    -0.02100
C154        C  0.25418415  0.26157498  0.41659112    -0.02100
C155        C  0.24128572  0.48481515  0.41850965    -0.02100
O156        O  0.11527898  0.28178283  0.52320384    -0.81400
C157        C  0.19384956  0.38644981  0.48028860     0.98000
O158        O  0.16546651  0.36993248  0.48322097    -0.70500
O159        O  0.11324906  0.31901894  0.49102145    -0.74100
Al160      Al  0.14622649  0.34777924  0.50760063     1.49000
C161        C  0.10950957  0.29669907  0.48054908     0.93200
O162        O  0.17834377  0.28619925  0.48862256    -0.80300
O163        O  0.21439262  0.32252564  0.52475782    -0.73900
Al164      Al  0.14920518  0.28837265  0.50624379     1.90100
O165        O  0.21461008  0.33324380  0.48404217    -0.72900
O166        O  0.20982609  0.37143916  0.53256095    -0.72800
O167        O  0.21248343  0.38308905  0.49124232    -0.78400
O168        O  0.17399115  0.38160980  0.52419645    -0.76600
O169        O  0.16819526  0.32882919  0.50745604    -1.12800
O170        O  0.12377180  0.32704119  0.53174215    -0.72000
C171        C  0.10774357  0.29836783  0.53315048     0.98800
C172        C  0.20212632  0.30558540  0.47944813     0.95100
Al173      Al  0.20904927  0.35058799  0.50818331     1.55600
O174        O  0.12756673  0.28653463  0.48242930    -0.76600
C175        C  0.19750944  0.38766495  0.53433719     0.99300
C176        C  0.19667110  0.29732710  0.53311688     0.94200
O177        O  0.16842021  0.28417329  0.52980667    -0.81900
C178        C  0.15682723  0.07044989  0.23994225    -0.02100
C179        C  0.42338339  0.34393000  0.24255751    -0.02100
C180        C  0.43177004  0.07790389  0.24211999    -0.02100
O181        O  0.00369540  0.03948838  0.12753362    -0.81400
C182        C  0.47765845  0.43781681  0.17851968     0.98000
O183        O  0.45912665  0.44212366  0.16829993    -0.70500
O184        O  0.46113062  0.49328797  0.17769421    -0.74100
Al185      Al  0.46290357  0.47516950  0.15251416     1.49000
C186        C  0.47347876  0.02256836  0.17961542     0.93200
O187        O  0.04505771  0.03814936  0.17525938    -0.80300
O188        O  0.04778040  0.49772610  0.12701827    -0.73900
Al189      Al  0.02356366  0.03672390  0.15140870     1.90100
O190        O  0.05836085  0.00471586  0.16633911    -0.72900
O191        O  0.49606224  0.44369642  0.13376172    -0.72800
O192        O  0.00568071  0.45465079  0.17554815    -0.78400
O193        O  0.45945274  0.45411289  0.12781020    -0.76600
O194        O  0.00385725  0.49694993  0.15194273    -1.12800
O195        O  0.45791408  0.00389798  0.13622555    -0.72000
C196        C  0.47495687  0.02713491  0.12571141     0.98800
C197        C  0.06138374  0.02602096  0.17774419     0.95100
Al198      Al  0.02480682  0.47708553  0.15125922     1.55600
O199        O  0.49451165  0.04082125  0.16788797    -0.76600
C200        C  0.47163206  0.43792300  0.12489397     0.99300
C201        C  0.06412852  0.02685678  0.12425902     0.94200
O202        O  0.05665773  0.04277918  0.13481569    -0.81900
N203        N  0.10379843  0.18674207  0.35590003    -0.36200
N204        N  0.05441288  0.16905662  0.32644032    -0.56700
N205        N  0.08850573  0.15339493  0.29747207    -0.36200
N206        N  0.13587070  0.16771157  0.32809044    -0.56700
C207        C  0.08435610  0.19210242  0.36699653     0.27400
C208        C  0.12719896  0.19108349  0.36811262     0.27400
C209        C  0.06152454  0.14196256  0.28768581     0.27400
C210        C  0.10458306  0.14183756  0.28837213     0.27400
C211        C  0.04476703  0.18194783  0.34040552     0.36000
C212        C  0.03532754  0.16155142  0.31044799     0.36000
C213        C  0.15662576  0.17792730  0.34318587     0.36000
C214        C  0.14834306  0.16018213  0.31254397     0.36000
C215        C  0.09537346  0.19959971  0.38664325    -0.21500
C216        C  0.12246173  0.19953462  0.38724169    -0.21500
C217        C  0.06140687  0.12448275  0.27148005    -0.21500
C218        C  0.08804966  0.12388817  0.27217142    -0.21500
C219        C  0.01935443  0.18260540  0.33317896    -0.22500
C220        C  0.01303922  0.16915730  0.31443551    -0.22500
C221        C  0.18194361  0.17586663  0.33731083    -0.22500
C222        C  0.17697579  0.16530036  0.31784741    -0.22500
C223        C  0.05806997  0.19260180  0.35974251    -0.17900
C224        C  0.15350765  0.18940580  0.36217692    -0.17900
C225        C  0.13356692  0.14644723  0.29419967    -0.17900
C226        C  0.03663164  0.14629937  0.29283995    -0.17900
H227        H  0.08538415  0.20534507  0.39923927     0.15000
H228        H  0.13696372  0.20561885  0.40039045     0.15000
H229        H  0.04385255  0.11283195  0.26027931     0.15000
H230        H  0.09403504  0.11104634  0.26194329     0.15000
H231        H  0.00641048  0.19156463  0.34061437     0.13300
H232        H  0.49521282  0.16457158  0.30520104     0.13300
H233        H  0.20202308  0.18123944  0.34608227     0.13300
H234        H  0.19249354  0.16121747  0.30880418     0.13300
H235        H  0.10270889  0.18352192  0.34043223     0.26600
H236        H  0.09624309  0.16947983  0.30879775     0.26600
N237        N  0.33192640  0.41839255  0.36161506    -0.36200
N238        N  0.34537874  0.38618827  0.33068205    -0.56700
N239        N  0.35097102  0.43173865  0.30111877    -0.36200
N240        N  0.33973889  0.46508200  0.33325774    -0.56700
C241        C  0.33301087  0.39691534  0.37316959     0.27400
C242        C  0.32967675  0.43795633  0.37439467     0.27400
C243        C  0.36367744  0.41778672  0.29064969     0.27400
C244        C  0.36117089  0.45939561  0.29238110     0.27400
C245        C  0.33484173  0.36459858  0.34542046     0.36000
C246        C  0.34784307  0.37302613  0.31349968     0.36000
C247        C  0.32626390  0.47190597  0.34851004     0.36000
C248        C  0.33910093  0.48061472  0.31675785     0.36000
C249        C  0.33222490  0.40333869  0.39358175    -0.21500
C250        C  0.33007941  0.42925386  0.39435031    -0.21500
C251        C  0.38095925  0.43636977  0.27463212    -0.21500
C252        C  0.38017890  0.46274427  0.27614744    -0.21500
C253        C  0.33099638  0.33762792  0.33764267    -0.22500
C254        C  0.33977517  0.34311717  0.31750720    -0.22500
C255        C  0.31745805  0.49229824  0.34174026    -0.22500
C256        C  0.32590053  0.49805022  0.32159375    -0.22500
C257        C  0.32922899  0.36913936  0.36587187    -0.17900
C258        C  0.32220964  0.46020103  0.36850317    -0.17900
C259        C  0.35292725  0.48133342  0.29798565    -0.17900
C260        C  0.35993087  0.38863574  0.29488113    -0.17900
H261        H  0.33149711  0.38975667  0.40654071     0.15000
H262        H  0.32742241  0.43957595  0.40799809     0.15000
H263        H  0.39326814  0.43189266  0.26295084     0.15000
H264        H  0.39244772  0.48215182  0.26626568     0.15000
H265        H  0.32324734  0.31639498  0.34571481     0.13300
H266        H  0.34009586  0.32687251  0.30708652     0.13300
H267        H  0.30640759  0.50219977  0.35044096     0.13300
H268        H  0.33100086  0.01751419  0.31376410     0.13300
H269        H  0.32708129  0.41648947  0.34622846     0.26600
H270        H  0.33438630  0.42202883  0.31241940     0.26600
N271        N  0.09780959  0.40379554  0.35523747    -0.36200
N272        N  0.12831349  0.44986019  0.32477759    -0.56700
N273        N  0.07791392  0.41356770  0.29704308    -0.36200
N274        N  0.04822714  0.36696943  0.32682354    -0.56700
C275        C  0.12654275  0.41968306  0.36237952     0.27400
C276        C  0.08566586  0.37523660  0.36268027     0.27400
C277        C  0.09759760  0.43563916  0.28433148     0.27400
C278        C  0.05423571  0.39314610  0.28578464     0.27400
C279        C  0.14437834  0.46521897  0.34122775     0.36000
C280        C  0.13398786  0.47074274  0.31018760     0.36000
C281        C  0.03666479  0.35378389  0.34503068     0.36000
C282        C  0.02424030  0.35909369  0.31442718     0.36000
C283        C  0.13309138  0.40095820  0.37410499    -0.21500
C284        C  0.10737751  0.37271959  0.37408820    -0.21500
C285        C  0.08682527  0.42893393  0.26461864    -0.21500
C286        C  0.05935097  0.40253540  0.26554588    -0.21500
C287        C  0.16066904  0.49600984  0.33708059    -0.22500
C288        C  0.15405663  0.49956092  0.31733667    -0.22500
C289        C  0.00521106  0.33776920  0.34437256    -0.22500
C290        C  0.99740065  0.33981052  0.32479567    -0.22500
C291        C  0.14621110  0.45100813  0.35916029    -0.17900
C292        C  0.05452492  0.35288402  0.36111799    -0.17900
C293        C  0.02658445  0.36913549  0.29393932    -0.17900
C294        C  0.12182918  0.46406812  0.29038690    -0.17900
H295        H  0.15425405  0.40697030  0.38168849     0.15000
H296        H  0.10481537  0.35278537  0.38192108     0.15000
H297        H  0.09662917  0.44280054  0.25112842     0.15000
H298        H  0.04444238  0.39290082  0.25271931     0.15000
H299        H  0.17586000  0.51390658  0.34714141     0.13300
H300        H  0.16061099  0.02108057  0.31103197     0.13300
H301        H  0.98948750  0.32472413  0.35647190     0.13300
H302        H  0.47450749  0.32683113  0.31928218     0.13300
H303        H  0.08592570  0.41290325  0.34783704     0.26600
H304        H  0.07820814  0.41531428  0.31274719     0.26600
C305        C  0.34641136  0.41948122  0.75561551    -0.02100
C306        C  0.08272320  0.15287204  0.75024350    -0.02100
C307        C  0.07532914  0.41339829  0.75179216    -0.02100
O308        O  0.04694829  0.49581399  0.86501590    -0.81400
C309        C  0.44586499  0.47085510  0.81516407     0.98000
O310        O  0.45035868  0.45227602  0.82527246    -0.70500
O311        O  0.00178199  0.45119311  0.81816975    -0.74100
Al312      Al  0.48123573  0.45562911  0.84343358     1.49000
C313        C  0.02995712  0.46386806  0.81467735     0.93200
O314        O  0.04943129  0.03918778  0.81673948    -0.80300
O315        O  0.00624644  0.04211957  0.86539603    -0.73900
Al316      Al  0.04638452  0.01713562  0.84112278     1.90100
O317        O  0.01502447  0.05169483  0.82420019    -0.72900
O318        O  0.44997832  0.49122619  0.85906788    -0.72800
O319        O  0.46099138  0.49894895  0.81859084    -0.78400
O320        O  0.45729592  0.45341340  0.86681450    -0.76600
O321        O  0.00340783  0.49622212  0.84142795    -1.12800
O322        O  0.00917379  0.45004926  0.85906131    -0.72000
C323        C  0.03361400  0.46745269  0.86817986     0.98800
C324        C  0.03717397  0.05518643  0.81339650     0.95100
Al325      Al  0.48375506  0.01866736  0.84187367     1.55600
O326        O  0.04827433  0.48738724  0.82408376    -0.76600
C327        C  0.44209282  0.46689248  0.86867097     0.99300
C328        C  0.03483727  0.05750247  0.86750200     0.94200
O329        O  0.05194444  0.05038317  0.85774169    -0.81900
C330        C  0.25900607  0.00809978  0.57480523    -0.02100
C331        C  0.48578150  0.23958983  0.57453828    -0.02100
C332        C  0.25512426  0.23555676  0.57258698    -0.02100
O333        O  0.37879076  0.16071251  0.45949459    -0.81400
C334        C  0.30442289  0.19136138  0.50887281     0.98000
O335        O  0.32722871  0.20928873  0.49813175    -0.70500
O336        O  0.37843399  0.20786779  0.50566246    -0.74100
Al337      Al  0.35583719  0.20367970  0.48155034     1.49000
C338        C  0.39321372  0.19446965  0.50969349     0.93200
O339        O  0.33640409  0.12110663  0.50805717    -0.80300
O340        O  0.29103453  0.12024483  0.45992551    -0.73900
Al341      Al  0.35568376  0.14225357  0.48353469     1.90100
O342        O  0.28990304  0.10998768  0.50112420    -0.72900
O343        O  0.28999561  0.17129014  0.46687030    -0.72800
O344        O  0.29354444  0.16306489  0.50742771    -0.78400
O345        O  0.33607842  0.20505054  0.45706402    -0.76600
O346        O  0.33556668  0.16295601  0.48283458    -1.12800
O347        O  0.38868077  0.20725506  0.46505752    -0.72000
C348        C  0.39491381  0.18887994  0.45637262     0.98800
C349        C  0.30824739  0.10556846  0.51162750     0.95100
Al350      Al  0.29484132  0.14294356  0.48366770     1.55600
O351        O  0.38795726  0.17064805  0.50037842    -0.76600
C352        C  0.30761240  0.19419670  0.45618470     0.99300
C353        C  0.30287842  0.10370443  0.45748375     0.94200
O354        O  0.32686131  0.10910057  0.46688485    -0.81900
N355        N  0.39946646  0.29761471  0.64209603    -0.36200
N356        N  0.44915916  0.31794506  0.67000963    -0.56700
N357        N  0.41759662  0.33939668  0.69654990    -0.36200
N358        N  0.36773116  0.31913016  0.66765483    -0.56700
C359        C  0.41379346  0.28250561  0.63594692     0.27400
C360        C  0.37031054  0.28134414  0.63571461     0.27400
C361        C  0.44567293  0.35286719  0.70512371     0.27400
C362        C  0.40309718  0.35400800  0.70365050     0.27400
C363        C  0.46142196  0.30919472  0.65493752     0.36000
C364        C  0.46926631  0.32763763  0.68545553     0.36000
C365        C  0.34958867  0.31142224  0.65115223     0.36000
C366        C  0.35876735  0.33422983  0.68017969     0.36000
C367        C  0.39340710  0.25592041  0.62632946    -0.21500
C368        C  0.36585363  0.25502853  0.62635219    -0.21500
C369        C  0.44891087  0.37635496  0.71748378    -0.21500
C370        C  0.42214866  0.37682815  0.71671431    -0.21500
C371        C  0.48985345  0.31431418  0.66074851    -0.22500
C372        C  0.49332226  0.32298363  0.68056895    -0.22500
C373        C  0.32993290  0.32292931  0.65284690    -0.22500
C374        C  0.33455488  0.33581884  0.67166746    -0.22500
C375        C  0.44534131  0.29323473  0.63740924    -0.17900
C376        C  0.34888010  0.29158157  0.63586409    -0.17900
C377        C  0.37365159  0.34867501  0.69833232    -0.17900
C378        C  0.46884319  0.34503755  0.70218693    -0.17900
H379        H  0.39810580  0.23918290  0.61970157     0.15000
H380        H  0.34509817  0.23749802  0.61960598     0.15000
H381        H  0.46882446  0.39227948  0.72582817     0.15000
H382        H  0.41780971  0.39321340  0.72418799     0.15000
H383        H  0.00530396  0.31252819  0.65209178     0.13300
H384        H  0.01086247  0.32580228  0.68987085     0.13300
H385        H  0.31350879  0.32191427  0.64196653     0.13300
H386        H  0.32202421  0.34608771  0.67786298     0.13300
H387        H  0.41003023  0.31971539  0.64763635     0.26600
H388        H  0.40810740  0.32000661  0.68765416     0.26600
N389        N  0.18318348  0.08461138  0.63577300    -0.36200
N390        N  0.17017166  0.03750141  0.66480267    -0.56700
N391        N  0.16352229  0.07504897  0.69654206    -0.36200
N392        N  0.17445777  0.12095104  0.66576715    -0.56700
C393        C  0.18093931  0.06251013  0.62335649     0.27400
C394        C  0.18275383  0.10610233  0.62386923     0.27400
C395        C  0.15128628  0.04774604  0.70615146     0.27400
C396        C  0.15367467  0.09206165  0.70652148     0.27400
C397        C  0.18050371  0.02715838  0.64949173     0.36000
C398        C  0.16659381  0.02006852  0.68129222     0.36000
C399        C  0.18702208  0.14196165  0.65081348     0.36000
C400        C  0.17412202  0.13588095  0.68256498     0.36000
C401        C  0.17848385  0.06972668  0.60335884    -0.21500
C402        C  0.17952202  0.09727478  0.60368152    -0.21500
C403        C  0.13519624  0.04838441  0.72319204    -0.21500
C404        C  0.13627808  0.07593205  0.72320248    -0.21500
C405        C  0.18341959  0.00288633  0.65621250    -0.22500
C406        C  0.17386889  0.99788089  0.67619998    -0.22500
C407        C  0.19475436  0.17042482  0.65815887    -0.22500
C408        C  0.18609047  0.16644787  0.67825990    -0.22500
C409        C  0.18575731  0.03854179  0.62931835    -0.17900
C410        C  0.19000779  0.13530327  0.63042956    -0.17900
C411        C  0.15967047  0.12165574  0.70096334    -0.17900
C412        C  0.15373156  0.02200464  0.70004716    -0.17900
H413        H  0.17743063  0.05705856  0.58990155     0.15000
H414        H  0.17948747  0.11010512  0.59049397     0.15000
H415        H  0.12343646  0.03074777  0.73449916     0.15000
H416        H  0.12524106  0.08305726  0.73425392     0.15000
H417        H  0.19059250  0.98949532  0.64747958     0.13300
H418        H  0.16879471  0.47850859  0.68381303     0.13300
H419        H  0.20488684  0.19170662  0.64986504     0.13300
H420        H  0.18805270  0.18391977  0.68852308     0.13300
H421        H  0.19038341  0.08759418  0.65077403     0.26600
H422        H  0.17872459  0.08202835  0.68438772     0.26600
N423        N  0.42451068  0.07240144  0.69497704    -0.36200
N424        N  0.45516206  0.12067184  0.66581332    -0.56700
N425        N  0.40726081  0.08381582  0.63593729    -0.36200
N426        N  0.37476860  0.03714260  0.66663806    -0.56700
C427        C  0.44698006  0.09336361  0.70668729     0.27400
C428        C  0.40376332  0.05097467  0.70761326     0.27400
C429        C  0.42208448  0.11064624  0.62577285     0.27400
C430        C  0.38094265  0.06588811  0.62586501     0.27400
C431        C  0.47763489  0.13081923  0.67984238     0.36000
C432        C  0.46641260  0.13934805  0.64945961     0.36000
C433        C  0.36683459  0.01641707  0.68178895     0.36000
C434        C  0.35764026  0.02230494  0.65036492     0.36000
C435        C  0.44028189  0.08534434  0.72701089    -0.21500
C436        C  0.41297253  0.05865052  0.72760788    -0.21500
C437        C  0.40561751  0.10891881  0.60845080    -0.21500
C438        C  0.37963086  0.08125143  0.60876357    -0.21500
C439        C  0.50323842  0.15631122  0.67243862    -0.22500
C440        C  0.49588908  0.16219495  0.65349215    -0.22500
C441        C  0.34425084  0.98830375  0.67519293    -0.22500
C442        C  0.33828786  0.99209420  0.65532644    -0.22500
C443        C  0.47477869  0.11789413  0.69947448    -0.17900
C444        C  0.37925570  0.02264074  0.70160458    -0.17900
C445        C  0.35794854  0.03602938  0.63146898    -0.17900
C446        C  0.45013601  0.13673982  0.63128902    -0.17900
H447        H  0.45408572  0.09711431  0.74001559     0.15000
H448        H  0.40175531  0.04568089  0.74118678     0.15000
H449        H  0.41140520  0.12575736  0.59658576     0.15000
H450        H  0.36182204  0.07366796  0.59754148     0.15000
H451        H  0.02562922  0.16936481  0.67909656     0.13300
H452        H  0.01213591  0.18030792  0.64277564     0.13300
H453        H  0.33027000  0.46997099  0.68734222     0.13300
H454        H  0.32167868  0.97462375  0.64561015     0.13300
H455        H  0.42586659  0.07008993  0.67941033     0.26600
H456        H  0.41552290  0.07758499  0.64832731     0.26600
C457        C  0.28544902  0.24426170  0.53895689    -0.20900
C458        C  0.26403477  0.22378016  0.55319222    -0.08900
C459        C  0.25020039  0.19251514  0.54811622     0.29900
C460        C  0.26361867  0.18252712  0.53385015    -0.20900
C461        C  0.28948240  0.20314878  0.52280807    -0.08900
C462        C  0.29901127  0.23427869  0.52445456     0.29900
F463        F  0.32189158  0.25515312  0.51256637    -0.19500
H464        H  0.29402360  0.26838380  0.54047798     0.18300
H465        H  0.25346945  0.15835150  0.53143587     0.18300
F466        F  0.22314453  0.17127812  0.55622015    -0.19400
C467        C  0.27433027  0.26182258  0.60662490    -0.20900
C468        C  0.28221443  0.25586441  0.58708387    -0.08900
C469        C  0.31344124  0.26488793  0.58394056     0.29900
C470        C  0.33473505  0.27954231  0.59924207    -0.20900
C471        C  0.32563545  0.28094796  0.61921028    -0.08900
C472        C  0.29462142  0.27060625  0.62282554     0.29900
F473        F  0.28326124  0.26682928  0.64202915    -0.19500
H474        H  0.25101971  0.25567596  0.61008460     0.18300
H475        H  0.35849128  0.28738705  0.59583652     0.18300
F476        F  0.32430540  0.25829530  0.56713077    -0.19400
C477        C  0.24829197  0.19113175  0.59399219    -0.20900
C478        C  0.23487340  0.20813232  0.58683994    -0.08900
C479        C  0.20626625  0.20136478  0.59540458     0.29900
C480        C  0.19128488  0.17719663  0.60918528    -0.20900
C481        C  0.20491447  0.16038902  0.61550675    -0.08900
C482        C  0.23365434  0.16775382  0.60798134     0.29900
F483        F  0.24787583  0.15257684  0.61450840    -0.19500
H484        H  0.27074575  0.19641316  0.58873687     0.18300
H485        H  0.16944382  0.17219766  0.61549626     0.18300
F486        F  0.19372029  0.21919123  0.59224060    -0.19400
C487        C  0.44089847  0.19642763  0.55419103    -0.20900
C488        C  0.46230172  0.22778078  0.55653256    -0.08900
C489        C  0.46233687  0.24750145  0.54114391     0.29900
C490        C  0.43931005  0.23699184  0.52634553    -0.20900
C491        C  0.41692620  0.20622378  0.52557081    -0.08900
C492        C  0.41851732  0.18601517  0.53931716     0.29900
F493        F  0.39794107  0.15593606  0.53864383    -0.19500
H494        H  0.44093052  0.17905940  0.56367536     0.18300
H495        H  0.43936601  0.25278553  0.51519192     0.18300
F496        F  0.48426474  0.27717618  0.54067174    -0.19400
C497        C  0.46189761  0.27341347  0.58488268    -0.20900
C498        C  0.48147119  0.26162856  0.58900869    -0.08900
C499        C  0.49308278  0.26561689  0.60908880     0.29900
C500        C  0.47941464  0.27290911  0.62481804    -0.20900
C501        C  0.46006984  0.28464424  0.62073746    -0.08900
C502        C  0.45312927  0.28657254  0.60022297     0.29900
F503        F  0.43584812  0.29920889  0.59511979    -0.19500
H504        H  0.45229244  0.27215364  0.57015900     0.18300
H505        H  0.48320984  0.26790812  0.64014628     0.18300
F506        F  0.51436152  0.25782894  0.61406414    -0.19400
C507        C  0.45087080  0.19949350  0.60013120    -0.20900
C508        C  0.47854817  0.21185826  0.58883381    -0.08900
C509        C  0.49792791  0.19961146  0.59288553     0.29900
C510        C  0.48858769  0.17500394  0.60642133    -0.20900
C511        C  0.46142492  0.16388072  0.61767437    -0.08900
C512        C  0.44339053  0.17739973  0.61497693     0.29900
F513        F  0.41744737  0.16800273  0.62604204    -0.19500
H514        H  0.43520533  0.20796828  0.59784026     0.18300
H515        H  0.50291211  0.16491259  0.60840166     0.18300
F516        F  0.02769075  0.21303390  0.58529831    -0.19400
C517        C  0.26519429  0.06066546  0.52943444    -0.20900
C518        C  0.29648109  0.08152535  0.52787673    -0.08900
C519        C  0.31605657  0.07882055  0.54185891     0.29900
C520        C  0.30459207  0.05592775  0.55685544    -0.20900
C521        C  0.27322997  0.03398886  0.55811192    -0.08900
C522        C  0.25372824  0.03750822  0.54419341     0.29900
F523        F  0.22321711  0.01811559  0.54474258    -0.19500
H524        H  0.24936803  0.06204590  0.51903317     0.18300
H525        H  0.32070940  0.05650341  0.56773264     0.18300
F526        F  0.34643097  0.09867036  0.54139839    -0.19400
C527        C  0.27899474  0.00957204  0.61159833    -0.20900
C528        C  0.28287208  0.00852161  0.59024328    -0.08900
C529        C  0.30892730  0.00710576  0.58386633     0.29900
C530        C  0.33281378  0.01378101  0.59755435    -0.20900
C531        C  0.33054338  0.02046169  0.61804936    -0.08900
C532        C  0.30256487  0.01622644  0.62512449     0.29900
F533        F  0.29860104  0.02063281  0.64500298    -0.19500
H534        H  0.25806231  0.00649414  0.61822523     0.18300
H535        H  0.35384844  0.01571821  0.59188833     0.18300
F536        F  0.31072441  0.49952438  0.56628248    -0.19400
C537        C  0.20567411  0.99462237  0.59072076    -0.20900
C538        C  0.23683312  0.01555672  0.58686972    -0.08900
C539        C  0.24908845  0.04461359  0.59595607     0.29900
C540        C  0.23202768  0.05118934  0.60945386    -0.20900
C541        C  0.20213978  0.02952439  0.61449895    -0.08900
C542        C  0.18870956  0.00128350  0.60476530     0.29900
F543        F  0.15495021  0.47903353  0.60539759    -0.19500
H544        H  0.19199133  0.47154851  0.58198501     0.18300
H545        H  0.24255897  0.07334471  0.61647153     0.18300
F546        F  0.27859413  0.06627725  0.59297029    -0.19400
C547        C  0.03800795  0.42217670  0.80168190    -0.20900
C548        C  0.04209926  0.45140524  0.79945406    -0.08900
C549        C  0.06048745  0.46984985  0.78363413     0.29900
C550        C  0.07253884  0.45848730  0.76932765    -0.20900
C551        C  0.06563844  0.42765417  0.76962998    -0.08900
C552        C  0.05061507  0.41085438  0.78747913     0.29900
F553        F  0.04870235  0.38373627  0.79162124    -0.19500
H554        H  0.02579880  0.40842917  0.81479230     0.18300
H555        H  0.08744139  0.47480448  0.75822987     0.18300
F556        F  0.06653602  0.49897000  0.78179462    -0.19400
C557        C  0.01788940  0.37063943  0.74916963    -0.20900
C558        C  0.04658987  0.38962715  0.73979730    -0.08900
C559        C  0.04780097  0.38686227  0.71835742     0.29900
C560        C  0.02125700  0.37402965  0.70706001    -0.20900
C561        C  0.49596560  0.35921363  0.71598856    -0.08900
C562        C  0.49242745  0.35769346  0.73723724     0.29900
F563        F  0.46441734  0.34120746  0.74591242    -0.19500
H564        H  0.01472677  0.36880757  0.76529977     0.18300
H565        H  0.02318476  0.37724356  0.69071912     0.18300
F566        F  0.07457024  0.39804178  0.70798910    -0.19400
C567        C  0.12741314  0.45197767  0.73381313    -0.20900
C568        C  0.09555256  0.43964471  0.73639387    -0.08900
C569        C  0.08143979  0.45243607  0.72418619     0.29900
C570        C  0.10448827  0.98077824  0.71279413    -0.20900
C571        C  0.13607205  0.99350232  0.71211240    -0.08900
C572        C  0.14447820  0.47758451  0.72136776     0.29900
F573        F  0.17532493  0.49103364  0.72125118    -0.19500
H574        H  0.13979231  0.44294949  0.74173920     0.18300
H575        H  0.09355627  0.99073766  0.70397420     0.18300
F576        F  0.05131700  0.44320268  0.72619758    -0.19400
C577        C  0.08395190  0.10730126  0.76965846    -0.20900
C578        C  0.07076322  0.12617354  0.76669672    -0.08900
C579        C  0.04307628  0.11683358  0.77773002     0.29900
C580        C  0.03309832  0.09455109  0.79292184    -0.20900
C581        C  0.04852340  0.07860994  0.79696966    -0.08900
C582        C  0.07360431  0.08462591  0.78468727     0.29900
F583        F  0.08791517  0.06814633  0.78674880    -0.19500
H584        H  0.10155231  0.10816378  0.76012771     0.18300
H585        H  0.01234289  0.08907280  0.80111592     0.18300
F586        F  0.02356471  0.12691911  0.77277065    -0.19400
C587        C  0.03706286  0.11629879  0.72921284    -0.20900
C588        C  0.05419889  0.14591035  0.73725146    -0.08900
C589        C  0.04433821  0.16698414  0.73240082     0.29900
C590        C  0.01852980  0.15832087  0.72018052    -0.20900
C591        C  0.50221073  0.12818949  0.71274024    -0.08900
C592        C  0.01176595  0.10800575  0.71698050     0.29900
F593        F  0.49670086  0.07861593  0.71061063    -0.19500
H594        H  0.04385042  0.09948618  0.73212776     0.18300
H595        H  0.01137471  0.17471105  0.71673540     0.18300
F596        F  0.05972607  0.19615243  0.73867604    -0.19400
C597        C  0.12167330  0.13903472  0.70336098    -0.20900
C598        C  0.14480093  0.13598416  0.71270945    -0.08900
C599        C  0.15266838  0.14612716  0.73275579     0.29900
C600        C  0.13468060  0.15502678  0.74396368    -0.20900
C601        C  0.10736603  0.15208740  0.73583507    -0.08900
C602        C  0.10406090  0.14819477  0.71436626     0.29900
F603        F  0.08452634  0.15368668  0.70352110    -0.19500
H604        H  0.11682528  0.13374072  0.68739218     0.18300
H605        H  0.14025506  0.16117172  0.75975474     0.18300
F606        F  0.17680172  0.14616399  0.74171665    -0.19400
C607        C  0.37404156  0.45195257  0.78636014    -0.20900
C608        C  0.37289794  0.43134471  0.77143323    -0.08900
C609        C  0.39815095  0.42626626  0.77049151     0.29900
C610        C  0.42150654  0.43909888  0.78482076    -0.20900
C611        C  0.42185324  0.45896090  0.79958531    -0.08900
C612        C  0.39820576  0.46576798  0.80005177     0.29900
F613        F  0.39798410  0.48509095  0.81414876    -0.19500
H614        H  0.35598454  0.45752390  0.78725219     0.18300
H615        H  0.44007902  0.43425589  0.78396578     0.18300
F616        F  0.40221892  0.41107333  0.75510705    -0.19400
C617        C  0.38214740  0.46540729  0.73450005    -0.20900
C618        C  0.35337698  0.44947705  0.74438543    -0.08900
C619        C  0.33403596  0.46228894  0.74298638     0.29900
C620        C  0.34310470  0.98551318  0.72784942    -0.20900
C621        C  0.36989946  0.99709429  0.71615578    -0.08900
C622        C  0.38966118  0.48992459  0.72176344     0.29900
F623        F  0.41687444  0.50300731  0.71180185    -0.19500
H624        H  0.39837296  0.45744579  0.73559607     0.18300
H625        H  0.32850366  0.99538331  0.72642247     0.18300
F626        F  0.30865110  0.45234400  0.75461239    -0.19400
C627        C  0.34904884  0.40297433  0.71850255    -0.20900
C628        C  0.34699914  0.39695990  0.73973223    -0.08900
C629        C  0.34572350  0.36956384  0.74583722     0.29900
C630        C  0.35243597  0.35282905  0.73191033    -0.20900
C631        C  0.35990558  0.36254365  0.71160254    -0.08900
C632        C  0.35744602  0.38745300  0.70492771     0.29900
F633        F  0.36485848  0.39801058  0.68553407    -0.19500
H634        H  0.34606974  0.42096605  0.71213940     0.18300
H635        H  0.35376250  0.33331929  0.73727564     0.18300
F636        F  0.34134521  0.36069074  0.76562374    -0.19400
C637        C  0.43269782  0.03047400  0.22658260    -0.20900
C638        C  0.44238338  0.06190348  0.22636294    -0.08900
C639        C  0.46397279  0.07978435  0.21120754     0.29900
C640        C  0.47363051  0.06668692  0.19641971    -0.20900
C641        C  0.46266999  0.03528578  0.19606946    -0.08900
C642        C  0.44219533  0.01726665  0.21150684     0.29900
F643        F  0.43158797  0.98693317  0.21227463    -0.19500
H644        H  0.41807914  0.01576806  0.23847561     0.18300
H645        H  0.48968454  0.08145031  0.18497375     0.18300
F646        F  0.47521328  0.11020661  0.21026365    -0.19400
C647        C  0.47745240  0.13075844  0.25310196    -0.20900
C648        C  0.46158227  0.09864560  0.25400012    -0.08900
C649        C  0.47385086  0.08461904  0.26658946     0.29900
C650        C  0.49769212  0.10160611  0.27971005    -0.20900
C651        C  0.00873030  0.13003595  0.28024923    -0.08900
C652        C  0.99942113  0.14522555  0.26666705     0.29900
F653        F  0.01489947  0.17596151  0.26547653    -0.19500
H654        H  0.47091727  0.14286365  0.24257289     0.18300
H655        H  0.50551342  0.08997511  0.28979115     0.18300
F656        F  0.46142761  0.05400231  0.26717477    -0.19400
C657        C  0.40963806  0.06175270  0.27872110    -0.20900
C658        C  0.40674119  0.05607614  0.25750836    -0.08900
C659        C  0.37955565  0.03033443  0.25111837     0.29900
C660        C  0.35700375  0.50603121  0.26398551    -0.20900
C661        C  0.36402698  0.50874286  0.28479640    -0.08900
C662        C  0.39212039  0.03893076  0.29270152     0.29900
F663        F  0.39956197  0.04353878  0.31269055    -0.19500
H664        H  0.42699500  0.08310590  0.28479114     0.18300
H665        H  0.33845705  0.48507117  0.25821414     0.18300
F666        F  0.37234517  0.02546063  0.23114355    -0.19400
C667        C  0.47066768  0.39066573  0.22564890    -0.20900
C668        C  0.43925906  0.36872061  0.22567936    -0.08900
C669        C  0.42115269  0.37094473  0.21013411     0.29900
C670        C  0.43404464  0.39296031  0.19490396    -0.20900
C671        C  0.46531586  0.41410519  0.19466805    -0.08900
C672        C  0.48355611  0.41284413  0.21027972     0.29900
F673        F  0.51363991  0.43368750  0.21116816    -0.19500
H674        H  0.48544876  0.39169876  0.23778025     0.18300
H675        H  0.41924872  0.39342571  0.18321244     0.18300
F676        F  0.39069644  0.35138924  0.20952771    -0.19400
C677        C  0.47309249  0.35891316  0.28972659    -0.20900
C678        C  0.99812289  0.35758941  0.28171188    -0.08900
C679        C  0.99450871  0.34403478  0.26252119     0.29900
C680        C  0.47027394  0.33798947  0.25035158    -0.20900
C681        C  0.44659900  0.34274551  0.25759080    -0.08900
C682        C  0.44636532  0.34773516  0.27876476     0.29900
F683        F  0.42084217  0.34246871  0.28904771    -0.19500
H684        H  0.47380772  0.36794053  0.30472593     0.18300
H685        H  0.47033056  0.33123780  0.23478227     0.18300
F686        F  0.01572273  0.33753852  0.25515468    -0.19400
C687        C  0.41996270  0.38340573  0.26392587    -0.20900
C688        C  0.40371982  0.35522098  0.25387305    -0.08900
C689        C  0.37146607  0.34026286  0.25514323     0.29900
C690        C  0.35703535  0.35108484  0.26837105    -0.20900
C691        C  0.37429455  0.37663938  0.28053955    -0.08900
C692        C  0.40598260  0.39250835  0.27820601     0.29900
F693        F  0.42356901  0.41716837  0.28975271    -0.19500
H694        H  0.44450632  0.39683096  0.26248127     0.18300
H695        H  0.33240209  0.33946456  0.26920682     0.18300
F696        F  0.35367821  0.31638402  0.24314848    -0.19400
C697        C  0.10784621  0.06688128  0.22415507    -0.20900
C698        C  0.13171862  0.06001344  0.22340760    -0.08900
C699        C  0.13042755  0.03995159  0.20802255     0.29900
C700        C  0.10759137  0.02908047  0.19341429    -0.20900
C701        C  0.08487894  0.03723761  0.19376019    -0.08900
C702        C  0.08500545  0.05599370  0.20945277     0.29900
F703        F  0.06257026  0.06320029  0.21099768    -0.19500
H704        H  0.10589643  0.07984597  0.23642723     0.18300
H705        H  0.10786687  0.01430648  0.18169114     0.18300
F706        F  0.15153020  0.03088928  0.20703130    -0.19400
C707        C  0.11923940  0.02731018  0.26218080    -0.20900
C708        C  0.14741255  0.04041333  0.25155128    -0.08900
C709        C  0.16411168  0.02477181  0.25214798     0.29900
C710        C  0.15734691  0.50002771  0.26394940    -0.20900
C711        C  0.13116335  0.48954041  0.27605962    -0.08900
C712        C  0.11062498  0.00311407  0.27541130     0.29900
F713        F  0.08472962  0.99299286  0.28664767    -0.19500
H714        H  0.10479204  0.03741949  0.26133559     0.18300
H715        H  0.17070931  0.48871705  0.26449371     0.18300
F716        F  0.18810415  0.03203801  0.23957885    -0.19400
C717        C  0.15628233  0.09026391  0.27616624    -0.20900
C718        C  0.15715540  0.09437112  0.25480160    -0.08900
C719        C  0.15900386  0.12155751  0.24755306     0.29900
C720        C  0.15408514  0.14022736  0.26078169    -0.20900
C721        C  0.14722282  0.13217365  0.28136252    -0.08900
C722        C  0.14973682  0.10779800  0.28911774     0.29900
F723        F  0.14399913  0.09971040  0.30905378    -0.19500
H724        H  0.15889956  0.07236014  0.28309529     0.18300
H725        H  0.15310083  0.15957115  0.25467971     0.18300
F726        F  0.16275824  0.12870623  0.22745633    -0.19400
C727        C  0.21068358  0.41854883  0.56679685    -0.20900
C728        C  0.21330813  0.41667092  0.54566265    -0.08900
C729        C  0.23186232  0.44334603  0.53473391     0.29900
C730        C  0.24642696  0.47141115  0.54439189    -0.20900
C731        C  0.24224556  0.47444379  0.56541713    -0.08900
C732        C  0.22534251  0.44695291  0.57664107     0.29900
F733        F  0.22248912  0.44750922  0.59713643    -0.19500
H734        H  0.19714363  0.39809529  0.57566118     0.18300
H735        H  0.26124670  0.49062997  0.53494798     0.18300
F736        F  0.23613003  0.44230438  0.51446019    -0.19400
C737        C  0.23761853  0.29898477  0.55532272    -0.20900
C738        C  0.20968468  0.28200179  0.54544024    -0.08900
C739        C  0.19654119  0.25030735  0.54496645     0.29900
C740        C  0.21149085  0.23616251  0.55368002    -0.20900
C741        C  0.23902220  0.25271568  0.56440504    -0.08900
C742        C  0.25214281  0.28481571  0.56477104     0.29900
F743        F  0.27994907  0.30315919  0.57285001    -0.19500
H744        H  0.24871163  0.32352292  0.55529735     0.18300
H745        H  0.20130523  0.21182680  0.55218531     0.18300
F746        F  0.17007547  0.23298906  0.53496725    -0.19400
C747        C  0.07069392  0.30085322  0.55788306    -0.20900
C748        C  0.07838843  0.28371911  0.54499974    -0.08900
C749        C  0.05618798  0.25312863  0.54177817     0.29900
C750        C  0.02739190  0.24041274  0.55112029    -0.20900
C751        C  0.01977362  0.25688482  0.56491555    -0.08900
C752        C  0.04209710  0.28800409  0.56764233     0.29900
F753        F  0.03652986  0.30704463  0.57887704    -0.19500
H754        H  0.08674556  0.32467461  0.56015853     0.18300
H755        H  0.01088587  0.21703853  0.54783272     0.33300
F756        F  0.06174647  0.23546487  0.52902587    -0.19400
C757        C  0.26144689  0.05054934  0.45552664    -0.20900
C758        C  0.28606570  0.07526524  0.44595244    -0.08900
C759        C  0.29410762  0.07185346  0.42612336     0.29900
C760        C  0.27863268  0.04343666  0.41659437    -0.20900
C761        C  0.25680510  0.01723184  0.42731039    -0.08900
C762        C  0.24666040  0.02205338  0.44635753     0.29900
F763        F  0.22206478  0.99961851  0.45615246    -0.19500
H764        H  0.25397671  0.05320341  0.47047000     0.18300
H765        H  0.28523576  0.04150835  0.40124376     0.18300
F766        F  0.31709956  0.09574331  0.41612745    -0.19400
C767        C  0.18676306  0.40939802  0.44832599    -0.20900
C768        C  0.20563154  0.41047870  0.46422615    -0.08900
C769        C  0.23598760  0.43434965  0.46426922     0.29900
C770        C  0.24622656  0.45756246  0.44971902    -0.20900
C771        C  0.22697708  0.45793002  0.43428528    -0.08900
C772        C  0.19746920  0.43183523  0.43309044     0.29900
F773        F  0.17963639  0.42575889  0.41654808    -0.19500
H774        H  0.16390255  0.39026265  0.44713205     0.18300
H775        H  0.26962830  0.47575988  0.45054269     0.18300
F776        F  0.25604162  0.43553436  0.47837104    -0.19400
C777        C  0.31616902  0.49204498  0.39543559    -0.20900
C778        C  0.30353972  0.46656268  0.38285333    -0.08900
C779        C  0.27236629  0.44597724  0.38394276     0.29900
C780        C  0.25363690  0.45191637  0.39621514    -0.20900
C781        C  0.26520048  0.47893055  0.40760948    -0.08900
C782        C  0.29737163  0.49785301  0.40823723     0.29900
F783        F  0.31109291  0.52093951  0.42159308    -0.19500
H784        H  0.34057225  0.50719706  0.39547514     0.18300
H785        H  0.22943509  0.43593726  0.39598412     0.18300
F786        F  0.25988082  0.42038537  0.37259640    -0.19400
C787        C  0.20164960  0.47888679  0.36707412    -0.20900
C788        C  0.17165471  0.46787881  0.37362322    -0.08900
C789        C  0.16615227  0.47067214  0.39427430     0.29900
C790        C  0.18984770  0.48030714  0.40844675    -0.20900
C791        C  0.21851602  0.48452284  0.40241472    -0.08900
C792        C  0.22508237  0.48817014  0.38115979     0.29900
F793        F  0.25386538  0.49989384  0.37373409    -0.19500
H794        H  0.20675242  0.47886878  0.35105713     0.18300
H795        H  0.18470826  0.48054845  0.42442595     0.18300
F796        F  0.13754811  0.46219177  0.40087243    -0.19400
C797        C  0.28920732  0.23757766  0.41616672    -0.20900
C798        C  0.26933805  0.24466769  0.42715953    -0.08900
C799        C  0.26037320  0.23149411  0.44693928     0.29900
C800        C  0.27301821  0.21524382  0.45566689    -0.20900
C801        C  0.29447653  0.21059590  0.44525492    -0.08900
C802        C  0.30261446  0.22189477  0.42533224     0.29900
F803        F  0.32259879  0.21688284  0.41453178    -0.19500
H804        H  0.29459532  0.24445340  0.40039245     0.18300
H805        H  0.26584207  0.20612040  0.47090602     0.18300
F806        F  0.23776587  0.23205376  0.45774273    -0.19400
C807        C  0.19638809  0.27601613  0.44811027    -0.20900
C808        C  0.21528507  0.29537398  0.46322780    -0.08900
C809        C  0.24633521  0.30425371  0.46282096     0.29900
C810        C  0.25789847  0.29297303  0.44789509    -0.20900
C811        C  0.23898793  0.27261994  0.43275774    -0.08900
C812        C  0.20794751  0.26551880  0.43272706     0.29900
F813        F  0.18883870  0.25072979  0.41724084    -0.19500
H814        H  0.17256673  0.26981603  0.44779052     0.18300
H815        H  0.28189152  0.29988712  0.44823247     0.18300
F816        F  0.26532600  0.32301295  0.47727417    -0.19400
C817        C  0.20594076  0.21083950  0.40828350    -0.20900
C818        C  0.23111875  0.23825628  0.40123842    -0.08900
C819        C  0.23346958  0.24316948  0.37987121     0.29900
C820        C  0.20790851  0.22789407  0.36774742    -0.20900
C821        C  0.18094994  0.20366313  0.37555297    -0.08900
C822        C  0.18111024  0.19354054  0.39549878     0.29900
F823        F  0.15663536  0.16813646  0.40296240    -0.19500
H824        H  0.20426222  0.20427875  0.42412089     0.18300
H825        H  0.20935552  0.23478734  0.35197346     0.18300
F826        F  0.26010771  0.26250915  0.37038455    -0.19400
C827        C  0.28129767  0.33211887  0.38231072    -0.20900
C828        C  0.31220568  0.34239215  0.37942488    -0.08900
C829        C  0.32598595  0.32864328  0.39033031     0.29900
C830        C  0.30838606  0.30395276  0.40346745    -0.20900
C831        C  0.27640964  0.29161927  0.40509085    -0.08900
C832        C  0.26372754  0.30757625  0.39495574     0.29900
F833        F  0.23351132  0.29802093  0.39592322    -0.19500
H834        H  0.27051606  0.34303914  0.37439121     0.18300
H835        H  0.32009646  0.29481140  0.41210549     0.18300
F836        F  0.35632724  0.33916683  0.38833612    -0.19400
C837        C  0.46003275  0.24040692  0.42152420    -0.20900
C838        C  0.48242289  0.23206940  0.42586635    -0.08900
C839        C  0.47390284  0.20746169  0.43957455     0.29900
C840        C  0.44457996  0.19204668  0.44819753    -0.20900
C841        C  0.42311833  0.20115658  0.44401127    -0.08900
C842        C  0.43103941  0.22531974  0.43047662     0.29900
F843        F  0.41082995  0.23479468  0.42618910    -0.19500
H844        H  0.46465869  0.25925036  0.41164388     0.18300
H845        H  0.43916398  0.17391970  0.45905498     0.18300
F846        F  0.49413972  0.19846077  0.44485395    -0.19400
C847        C  0.05924680  0.24981152  0.43738396    -0.20900
C848        C  0.03667678  0.25869212  0.43658904    -0.08900
C849        C  0.03448901  0.27399952  0.45389627     0.29900
C850        C  0.05823187  0.28648274  0.46812515    -0.20900
C851        C  0.08342910  0.28192794  0.46637656    -0.08900
C852        C  0.08262750  0.26186688  0.45153184     0.29900
F853        F  0.10484328  0.25430962  0.45020156    -0.19500
H854        H  0.05981890  0.23384796  0.42689272     0.18300
H855        H  0.05709059  0.30010830  0.48034662     0.18300
F856        F  0.01097242  0.27953454  0.45601231    -0.19400
C857        C  0.04799546  0.33411530  0.39719550    -0.20900
C858        C  0.04041544  0.32790212  0.37664813    -0.08900
C859        C  0.01995075  0.29776897  0.37120863     0.29900
C860        C  0.00767494  0.27505790  0.38598059    -0.20900
C861        C  0.01983676  0.27998452  0.40587131    -0.08900
C862        C  0.03957383  0.31073873  0.41139732     0.29900
F863        F  0.05210897  0.31944731  0.42992480    -0.19500
H864        H  0.06247948  0.35726101  0.40209835     0.18300
H865        H  0.49350890  0.25107034  0.38001112     0.18300
F866        F  0.01322128  0.28955362  0.35146992    -0.19400
C867        C  0.05235692  0.25044255  0.39228530    -0.20900
C868        C  0.02331764  0.23373666  0.40181365    -0.08900
C869        C  0.00412306  0.20368475  0.39494328     0.29900
C870        C  0.01536900  0.19025463  0.38133854    -0.20900
C871        C  0.04491483  0.20689843  0.37313006    -0.08900
C872        C  0.06276466  0.23749337  0.37811819     0.29900
F873        F  0.09090152  0.25467535  0.36976295    -0.19500
H874        H  0.06753887  0.27387654  0.39630956     0.18300
H875        H  0.00088465  0.16681776  0.37704432     0.18300
F876        F  0.47747878  0.18399480  0.40396993    -0.19400
C877        C  0.38859366  0.10073048  0.20335290    -0.20900
C878        C  0.38502803  0.12251589  0.21405133    -0.08900
C879        C  0.39739014  0.13059655  0.23355679     0.29900
C880        C  0.41208007  0.11604690  0.24237237    -0.20900
C881        C  0.41719921  0.09500581  0.23135373    -0.08900
C882        C  0.40428484  0.08717898  0.21161457     0.29900
F883        F  0.40478341  0.06511788  0.20036954    -0.19500
H884        H  0.37912154  0.09409517  0.18825410     0.18300
H885        H  0.41965183  0.12137259  0.25794491     0.18300
F886        F  0.39434825  0.15166090  0.24433603    -0.19400
C887        C  0.37084395  0.25672491  0.23408030    -0.20900
C888        C  0.37933743  0.25346733  0.21428605    -0.08900
C889        C  0.40218339  0.27906225  0.20421310     0.29900
C890        C  0.41529019  0.30741133  0.21318456    -0.20900
C891        C  0.40630193  0.31184771  0.23271603    -0.08900
C892        C  0.38516491  0.28537915  0.24357099     0.29900
F893        F  0.37833193  0.28714116  0.26331516    -0.19500
H894        H  0.35393913  0.23702263  0.24239144     0.18300
H895        H  0.43344124  0.32576197  0.20465819     0.18300
F896        F  0.41181188  0.27680856  0.18531675    -0.19400
C897        C  0.24460691  0.10827361  0.23310675    -0.20900
C898        C  0.24850742  0.11925257  0.21312090    -0.08900
C899        C  0.22300587  0.11508308  0.20217073     0.29900
C900        C  0.19398179  0.09853846  0.21047045    -0.20900
C901        C  0.18917859  0.08630830  0.23035764    -0.08900
C902        C  0.21541807  0.09330478  0.24201634     0.29900
F903        F  0.21283124  0.08527866  0.26194871    -0.19500
H904        H  0.26418532  0.11212814  0.24198027     0.18300
H905        H  0.17544225  0.09657322  0.20127112     0.18300
F906        F  0.22604494  0.12693515  0.18318430    -0.19400
C907        C  0.43733678  0.04404918  0.12514560    -0.20900
C908        C  0.46051460  0.04204655  0.11489501    -0.08900
C909        C  0.46875065  0.05412380  0.09520129     0.29900
C910        C  0.45475370  0.06936851  0.08645332    -0.20900
C911        C  0.43428399  0.07511291  0.09780747    -0.08900
C912        C  0.42393376  0.05966159  0.11677150     0.29900
F913        F  0.39990528  0.05799898  0.12715470    -0.19500
H914        H  0.42966922  0.03367366  0.14003980     0.18300
H915        H  0.46097153  0.07798298  0.07104976     0.18300
F916        F  0.48976082  0.05075237  0.08437322    -0.19400
C917        C  0.37402443  0.09628077  0.10346099    -0.20900
C918        C  0.40470093  0.10300356  0.10514058    -0.08900
C919        C  0.42125203  0.11988242  0.12223907     0.29900
C920        C  0.40766989  0.12896861  0.13698006    -0.20900
C921        C  0.37732635  0.12221965  0.13518532    -0.08900
C922        C  0.36049408  0.10561419  0.11830304     0.29900
F923        F  0.33139329  0.09951740  0.11561913    -0.19500
H924        H  0.36052434  0.08502180  0.09031533     0.18300
H925        H  0.42120285  0.14160079  0.14987625     0.18300
F926        F  0.45082137  0.12746378  0.12478191    -0.19400
C927        C  0.45711132  0.17161298  0.06065327    -0.20900
C928        C  0.48751417  0.17911815  0.05836719    -0.08900
C929        C  0.49837268  0.16260097  0.06913590     0.29900
C930        C  0.47812511  0.13707373  0.08064670    -0.20900
C931        C  0.44639856  0.12657325  0.08049123    -0.08900
C932        C  0.43685423  0.14608148  0.07168740     0.29900
F933        F  0.40711395  0.13866204  0.07167349    -0.19500
H934        H  0.44863869  0.18481745  0.05292167     0.18300
H935        H  0.48761723  0.12556240  0.08913451     0.18300
F936        F  0.03146385  0.17504345  0.06913988    -0.19400
C937        C  0.44275705  0.37621936  0.08477961    -0.20900
C938        C  0.42752665  0.34974969  0.09711269    -0.08900
C939        C  0.42252421  0.35408650  0.11783249     0.29900
C940        C  0.43646962  0.38306271  0.12617817    -0.20900
C941        C  0.45456428  0.40874669  0.11428499    -0.08900
C942        C  0.45690505  0.40538930  0.09333309     0.29900
F943        F  0.47358185  0.43005094  0.08131823    -0.19500
H944        H  0.44538471  0.37413728  0.06861141     0.18300
H945        H  0.43333600  0.38545829  0.14225019     0.18300
F946        F  0.40339163  0.33091654  0.13021541    -0.19400
C947        C  0.37322114  0.26643664  0.10291197    -0.20900
C948        C  0.40302038  0.29182175  0.10361789    -0.08900
C949        C  0.42276799  0.29142732  0.11880175     0.29900
C950        C  0.41243285  0.26799037  0.13324295    -0.20900
C951        C  0.38225919  0.24436128  0.13308384    -0.08900
C952        C  0.36279252  0.24355572  0.11771994     0.29900
F953        F  0.33373363  0.22017106  0.11677553    -0.19500
H954        H  0.35768800  0.26344015  0.09080699     0.18300
H955        H  0.42778529  0.26882291  0.14498590     0.18300
F956        F  0.45203109  0.31428806  0.12000914    -0.19400
C957        C  0.39386738  0.31179941  0.05061929    -0.20900
C958        C  0.39066040  0.31433964  0.07183612    -0.08900
C959        C  0.36340253  0.31319648  0.07849734     0.29900
C960        C  0.33884212  0.30443310  0.06518561    -0.20900
C961        C  0.34114111  0.29771856  0.04478448    -0.08900
C962        C  0.36921817  0.30229636  0.03752534     0.29900
F963        F  0.37258959  0.29651635  0.01783512    -0.19500
H964        H  0.41513874  0.31606440  0.04386399     0.18300
H965        H  0.31760098  0.30188513  0.07096393     0.18300
F966        F  0.35957435  0.31815333  0.09826851    -0.19400
C967        C  0.43121287  0.28577011  0.06658084    -0.20900
C968        C  0.44078714  0.31384603  0.07635000    -0.08900
C969        C  0.47258676  0.33510246  0.07602787     0.29900
C970        C  0.49258859  0.32969860  0.06422960    -0.20900
C971        C  0.48180874  0.30272016  0.05336830    -0.08900
C972        C  0.45113852  0.28048878  0.05505978     0.29900
F973        F  0.44031169  0.25366096  0.04523247    -0.19500
H974        H  0.40753139  0.26811993  0.06717108     0.18300
H975        H  0.51663399  0.34632802  0.06385036     0.18300
F976        F  0.48517578  0.36010255  0.08784050    -0.19400
C977        C  0.11521971  0.07192896  0.12048428    -0.20900
C978        C  0.09392520  0.04315984  0.11326369    -0.08900
C979        C  0.10247961  0.03127465  0.09684738     0.29900
C980        C  0.13189504  0.04805201  0.08810822    -0.20900
C981        C  0.15380508  0.07664856  0.09598252    -0.08900
C982        C  0.14420597  0.08836341  0.11208091     0.29900
F983        F  0.16317922  0.11590218  0.12017134    -0.19500
H984        H  0.10970954  0.08190563  0.13318157     0.18300
H985        H  0.13693385  0.03874111  0.07488867     0.18300
F986        F  0.08231088  0.00402379  0.08888288    -0.19400
C987        C  0.20635449  0.09246683  0.12228971    -0.20900
C988        C  0.21140666  0.10828415  0.10359547    -0.08900
C989        C  0.24138747  0.13262280  0.09988464     0.29900
C990        C  0.26358684  0.14283332  0.11500263    -0.20900
C991        C  0.25761685  0.12795432  0.13379902    -0.08900
C992        C  0.22901951  0.10209536  0.13712687     0.29900
F993        F  0.22271459  0.08625988  0.15486381    -0.19500
H994        H  0.18492977  0.07217098  0.12550480     0.18300
H995        H  0.28586759  0.16209670  0.11179760     0.18300
F996        F  0.24957359  0.14706121  0.08168850    -0.19400
C997        C  0.19669514  0.15261985  0.08425617    -0.20900
C998        C  0.18366086  0.12302557  0.07631750    -0.08900
C999        C  0.16830643  0.11779404  0.05754524     0.29900
C1000       C  0.17538999  0.14220700  0.04445426    -0.20900
C1001       C  0.19442711  0.17215236  0.05093955    -0.08900
C1002       C  0.20106244  0.17689558  0.07181787     0.29900
F1003       F  0.21533894  0.20537359  0.07951111    -0.19500
H1004       H  0.20537568  0.15752418  0.09958322     0.18300
H1005       H  0.16839957  0.13735794  0.02875530     0.18300
F1006       F  0.15124156  0.08923601  0.05031453    -0.19400
C1007       C  0.38118782  0.07312630  0.03674532    -0.20900
C1008       C  0.35402613  0.04686726  0.04183532    -0.08900
C1009       C  0.35207636  0.03248788  0.06058005     0.29900
C1010       C  0.37465463  0.04728854  0.07522438    -0.20900
C1011       C  0.40046403  0.07580915  0.07096932    -0.08900
C1012       C  0.40524551  0.08553036  0.05032068     0.29900
F1013       F  0.43278611  0.10671455  0.04287200    -0.19500
H1014       H  0.38390613  0.08426721  0.02218463     0.18300
H1015       H  0.37104371  0.03740170  0.09030335     0.18300
F1016       F  0.32703800  0.00561721  0.06539172    -0.19400
C1017       C  0.22458556  0.08075022  0.04057078    -0.20900
C1018       C  0.21898462  0.05160077  0.04503984    -0.08900
C1019       C  0.20367085  0.03743651  0.06317041     0.29900
C1020       C  0.19358156  0.05227254  0.07636076    -0.20900
C1021       C  0.19690805  0.08087267  0.07131869    -0.08900
C1022       C  0.21425963  0.09545915  0.05341493     0.29900
F1023       F  0.22317340  0.12460793  0.04840156    -0.19500
H1024       H  0.23765166  0.09249569  0.02710606     0.18300
H1025       H  0.18291505  0.04124004  0.09059675     0.18300
F1026       F  0.19925673  0.00963367  0.06835976    -0.19400
C1027       C  0.28748472  0.39294034  0.75502915    -0.20900
C1028       C  0.31446527  0.40167531  0.76625732    -0.08900
C1029       C  0.31047335  0.38992624  0.78644235     0.29900
C1030       C  0.28157449  0.37385684  0.79529706    -0.20900
C1031       C  0.25549124  0.36869434  0.78481753    -0.08900
C1032       C  0.25847823  0.37785380  0.76438445     0.29900
F1033       F  0.23342560  0.37165365  0.75339491    -0.19500
H1034       H  0.28903752  0.39895513  0.73907254     0.18300
H1035       H  0.27961803  0.36569060  0.81073698     0.18300
F1036       F  0.33388641  0.39200573  0.79764127    -0.19400
C1037       C  0.08149445  0.18907877  0.77791008    -0.20900
C1038       C  0.09691267  0.18466375  0.76136958    -0.08900
C1039       C  0.12503864  0.21082333  0.75552248     0.29900
C1040       C  0.13797835  0.23759065  0.76717545    -0.20900
C1041       C  0.12258753  0.24054264  0.78403087    -0.08900
C1042       C  0.09362288  0.21621312  0.78871515     0.29900
F1043       F  0.07691431  0.21814257  0.80423171    -0.19500
H1044       H  0.05958168  0.17198758  0.78297462     0.18300
H1045       H  0.15983777  0.25645753  0.76261942     0.18300
F1046       F  0.13980747  0.21178943  0.73804280    -0.19400
C1047       C  0.09983647  0.35438739  0.76887282    -0.20900
C1048       C  0.12383242  0.37177288  0.78208723    -0.08900
C1049       C  0.13262482  0.40260176  0.78452008     0.29900
C1050       C  0.11704080  0.41516810  0.77458840    -0.20900
C1051       C  0.09283766  0.39811531  0.76117068    -0.08900
C1052       C  0.08472745  0.36713391  0.75835379     0.29900
F1053       F  0.06193648  0.34832578  0.74588615    -0.19500
H1054       H  0.09242429  0.33057615  0.76680413     0.18300
H1055       H  0.12384650  0.43864477  0.77754630     0.18300
F1056       F  0.15545939  0.42055415  0.79730622    -0.19400
C1057       C  0.03389235  0.08997116  0.89654696    -0.20900
C1058       C  0.04918007  0.08559637  0.88011680    -0.08900
C1059       C  0.07854168  0.10921307  0.87507023     0.29900
C1060       C  0.09174542  0.13643194  0.88573671    -0.20900
C1061       C  0.07637075  0.14189772  0.90174661    -0.08900
C1062       C  0.04747243  0.11733645  0.90761146     0.29900
F1063       F  0.03252969  0.11876275  0.92433580    -0.19500
H1064       H  0.01154021  0.07192762  0.90107813     0.18300
H1065       H  0.11420425  0.15403071  0.88100285     0.18300
F1066       F  0.09431084  0.10666673  0.85915664    -0.19400
C1067       C  0.12890335  0.25444400  0.88748008    -0.20900
C1068       C  0.11920293  0.24798202  0.86732701    -0.08900
C1069       C  0.09864771  0.21799003  0.86205281     0.29900
C1070       C  0.08935972  0.19451664  0.87637589    -0.20900
C1071       C  0.10126246  0.20005182  0.89633818    -0.08900
C1072       C  0.11970091  0.23101112  0.90192713     0.29900
F1073       F  0.13047773  0.23867638  0.92110866    -0.19500
H1074       H  0.14449202  0.27759705  0.89189265     0.18300
H1075       H  0.07291396  0.17200212  0.87146690     0.18300
F1076       F  0.08796730  0.21123480  0.84281892    -0.19400
C1077       C  0.17660567  0.20406299  0.92811932    -0.20900
C1078       C  0.17095098  0.19284184  0.94833171    -0.08900
C1079       C  0.14398608  0.16463867  0.95112338     0.29900
C1080       C  0.11982915  0.15585664  0.93744189    -0.20900
C1081       C  0.12261783  0.17511197  0.92096628    -0.08900
C1082       C  0.15261661  0.19576937  0.91456102     0.29900
F1083       F  0.15898412  0.20855839  0.89572320    -0.19500
H1084       H  0.19920854  0.22084583  0.92309044     0.18300
H1085       H  0.09794504  0.13639596  0.94120400     0.18300
F1086       F  0.14059696  0.14563715  0.96671626    -0.19400
C1087       C  0.03445844  0.18926456  0.93984292    -0.20900
C1088       C  0.04873984  0.20100281  0.95852263    -0.08900
C1089       C  0.07603489  0.20164641  0.96277107     0.29900
C1090       C  0.08931428  0.19160777  0.94850058    -0.20900
C1091       C  0.07562395  0.17959024  0.92938242    -0.08900
C1092       C  0.04775749  0.17893755  0.92537981     0.29900
F1093       F  0.03416080  0.16980013  0.90702245    -0.19500
H1094       H  0.01372394  0.18945415  0.93609167     0.18300
H1095       H  0.11191912  0.19631153  0.95226157     0.18300
F1096       F  0.09141887  0.21463329  0.98011236    -0.19400
C1097       C  0.39142709  0.46185446  0.87584006    -0.20900
C1098       C  0.41324768  0.45344905  0.88071520    -0.08900
C1099       C  0.40609625  0.43140034  0.89595719     0.29900
C1100       C  0.37764045  0.41806140  0.90594159    -0.20900
C1101       C  0.35472708  0.42490948  0.90010750    -0.08900
C1102       C  0.36281469  0.44793926  0.88520702     0.29900
F1103       F  0.34253651  0.45645256  0.87910381    -0.19500
H1104       H  0.39606524  0.47868396  0.86410565     0.18300
H1105       H  0.37409829  0.40261852  0.91832052     0.18300
F1106       F  0.42666684  0.42291711  0.90138359    -0.19400
C1107       C  0.26599270  0.38523392  0.89902472    -0.20900
C1108       C  0.29657104  0.39463676  0.89347214    -0.08900
C1109       C  0.30138994  0.38595816  0.87388827     0.29900
C1110       C  0.27734754  0.37187730  0.86010972    -0.20900
C1111       C  0.24779678  0.36507461  0.86542466    -0.08900
C1112       C  0.24213422  0.37137000  0.88511424     0.29900
F1113       F  0.21356792  0.36446052  0.89082273    -0.19500
H1114       H  0.26052633  0.38931480  0.91417011     0.18300
H1115       H  0.28185604  0.36605004  0.84522154     0.18300
F1116       F  0.32873181  0.38948439  0.86807496    -0.19400
C1117       C  0.31962478  0.35933181  0.91926003    -0.20900
C1118       C  0.31471820  0.38338898  0.92498014    -0.08900
C1119       C  0.29876684  0.37974423  0.94367760     0.29900
C1120       C  0.29352617  0.35664968  0.95722315    -0.20900
C1121       C  0.30027035  0.33419427  0.95182365    -0.08900
C1122       C  0.31271431  0.33510906  0.93257602     0.29900
F1123       F  0.31724832  0.31215484  0.92647760    -0.19500
H1124       H  0.32875227  0.35926901  0.90435205     0.18300
H1125       H  0.28159852  0.35471660  0.97137865     0.18300
F1126       F  0.28536007  0.39635763  0.94844273    -0.19400
C1127       C  0.30380397  0.44912742  0.91506050    -0.20900
C1128       C  0.32178507  0.43636622  0.92112336    -0.08900
C1129       C  0.33828540  0.44703974  0.93942527     0.29900
C1130       C  0.32967302  0.46172860  0.95363995    -0.20900
C1131       C  0.30824054  0.47067977  0.94872166    -0.08900
C1132       C  0.29752320  0.46651759  0.92858142     0.29900
F1133       F  0.27926448  0.47751945  0.92238261    -0.19500
H1134       H  0.29344383  0.44472707  0.90020986     0.18300
H1135       H  0.33842804  0.46415050  0.96890183     0.18300
F1136       F  0.35864497  0.43841026  0.94516093    -0.19400
C1137       C  0.08731400  0.45895701  0.90469312    -0.20900
C1138       C  0.07981230  0.42830795  0.90196367    -0.08900
C1139       C  0.05545955  0.41076253  0.88858867     0.29900
C1140       C  0.03968939  0.42325381  0.87868076    -0.20900
C1141       C  0.04779639  0.45381278  0.88127190    -0.08900
C1142       C  0.07148685  0.47136789  0.89471377     0.29900
F1143       F  0.07978722  0.50081547  0.89804862    -0.19500
H1144       H  0.10591443  0.47412955  0.91423888     0.18300
H1145       H  0.02169122  0.40907589  0.86829091     0.18300
F1146       F  0.04668097  0.38125484  0.88503055    -0.19400
C1147       C  0.10932784  0.35759519  0.87733748    -0.20900
C1148       C  0.13132619  0.37691881  0.86339619    -0.08900
C1149       C  0.13991101  0.40781426  0.86340196     0.29900
C1150       C  0.12759390  0.41911608  0.87794027    -0.20900
C1151       C  0.10861380  0.40060743  0.89400335    -0.08900
C1152       C  0.09774523  0.36875684  0.89214761     0.29900
F1153       F  0.07447149  0.34740448  0.90352322    -0.19500
H1154       H  0.10087492  0.33338039  0.87675517     0.18300
H1155       H  0.13418462  0.44291476  0.87730009     0.18300
F1156       F  0.15955455  0.42689377  0.84907614    -0.19400
C1157       C  0.09815241  0.37937630  0.93917567    -0.20900
C1158       C  0.08092553  0.38954366  0.92799678    -0.08900
C1159       C  0.04932572  0.37579200  0.93262182     0.29900
C1160       C  0.03562308  0.35068642  0.94583216    -0.20900
C1161       C  0.05332829  0.34105350  0.95649073    -0.08900
C1162       C  0.08492706  0.35685009  0.95386942     0.29900
F1163       F  0.10293243  0.34932826  0.96485927    -0.19500
H1164       H  0.12238008  0.38913223  0.93647404     0.18300
H1165       H  0.01116648  0.33909433  0.94808406     0.18300
F1166       F  0.03132430  0.38603788  0.92486937    -0.19400
C1167       C  0.14437021  0.46154531  0.95803080    -0.20900
C1168       C  0.17456418  0.47013285  0.95284616    -0.08900
C1169       C  0.18081277  0.46651020  0.93248647     0.29900
C1170       C  0.15722978  0.45025043  0.91883390    -0.20900
C1171       C  0.12643876  0.43969686  0.92414790    -0.08900
C1172       C  0.12106513  0.44839424  0.94363695     0.29900
F1173       F  0.09240424  0.44080549  0.94965813    -0.19500
H1174       H  0.13830188  0.46364578  0.97348994     0.18300
H1175       H  0.16409616  0.44529853  0.90459161     0.18300
F1176       F  0.20989701  0.47699123  0.92599505    -0.19400
C1177       C  0.09993850  0.91553010  0.91238142    -0.02100
C1178       C  0.32383535  0.91119213  0.91019133    -0.02100
C1179       C  0.09377219  0.67282628  0.91157977    -0.02100
O1180       O  0.16336057  0.87550468  0.80548024    -0.81400
C1181       C  0.13286613  0.77168761  0.85182949     0.98000
O1182       O  0.12181018  0.78862813  0.84817634    -0.70500
O1183       O  0.12424919  0.84041920  0.83979028    -0.74100
Al1184     Al  0.12657403  0.81056726  0.82345136     1.49000
C1185       C  0.14337512  0.86372008  0.84920817     0.93200
O1186       O  0.22170920  0.87195404  0.83997374    -0.80300
O1187       O  0.22017614  0.83258409  0.80832251    -0.73900
Al1188     Al  0.19000595  0.86910008  0.82248820     1.90100
O1189       O  0.20684045  0.82498638  0.84914606    -0.72900
O1190       O  0.16588219  0.78346720  0.80055137    -0.72800
O1191       O  0.15537875  0.77439668  0.84178297    -0.78400
O1192       O  0.12028687  0.77640626  0.80723889    -0.76600
O1193       O  0.16724145  0.82850938  0.82355866    -1.12800
O1194       O  0.12529964  0.83040137  0.79887128    -0.72000
C1195       C  0.13894987  0.85883670  0.79620664     0.98800
C1196       C  0.22404026  0.85316786  0.85141587     0.95100
Al1197     Al  0.18540978  0.80589932  0.82476085     1.55600
O1198       O  0.17158158  0.87504312  0.84600224    -0.76600
C1199       C  0.13733878  0.76874670  0.79786964     0.99300
C1200       C  0.22713976  0.85581363  0.79751078     0.94200
O1201       O  0.21145416  0.86883447  0.79848548    -0.81900
N1202       N  0.27375736  0.52630230  0.02670916    -0.36200
N1203       N  0.22264107  0.00937315  0.99942689    -0.56700
N1204       N  0.25271784  0.98995444  0.97061821    -0.36200
N1205       N  0.30565191  0.01115086  0.99584630    -0.56700
C1206       C  0.25499653  0.53088622  0.03914095     0.27400
C1207       C  0.29830314  0.53086697  0.03774131     0.27400
C1208       C  0.22272939  0.97283182  0.96654912     0.27400
C1209       C  0.26629591  0.97427952  0.96421525     0.27400
C1210       C  0.21491974  0.52264422  0.01380339     0.36000
C1211       C  0.20455627  0.00386598  0.98308893     0.36000
C1212       C  0.32709720  0.52249481  0.00985732     0.36000
C1213       C  0.31679006  0.00679620  0.97825092     0.36000
C1214       C  0.26775558  0.53857815  0.05830327    -0.21500
C1215       C  0.29496425  0.53880292  0.05741775    -0.21500
C1216       C  0.21693111  0.94537179  0.95835413    -0.21500
C1217       C  0.24453980  0.94630233  0.95685130    -0.21500
C1218       C  0.19346814  0.52906832  0.00561414    -0.22500
C1219       C  0.18798834  0.01875139  0.98505892    -0.22500
C1220       C  0.35362001  0.52777893  0.99990428    -0.22500
C1221       C  0.34824324  0.02140557  0.97887463    -0.22500
C1222       C  0.22874859  0.53214413  0.03306046    -0.17900
C1223       C  0.32493798  0.53125329  0.03000534    -0.17900
C1224       C  0.29816051  0.98625913  0.96323780    -0.17900
C1225       C  0.20177264  0.98355501  0.96754858    -0.17900
H1226       H  0.25920645  0.54490239  0.07140822     0.15000
H1227       H  0.31089816  0.54568940  0.06981995     0.15000
H1228       H  0.19523128  0.92709588  0.95329358     0.15000
H1229       H  0.24828535  0.92875329  0.95056676     0.15000
H1230       H  0.18451477  0.54252032  0.01225037     0.13300
H1231       H  0.17187845  0.01915808  0.97448072     0.13300
H1232       H  0.37662327  0.53855291  0.00554897     0.13300
H1233       H  0.36382072  0.02237460  0.96718775     0.13300
H1234       H  0.27158265  0.52396658  0.01106406     0.26600
H1235       H  0.26387209  0.01277344  0.97471934     0.26600
C1236       C  0.18547373  0.59500894  0.08716888    -0.02100
C1237       C  0.41568329  0.81860178  0.08655591    -0.02100
C1238       C  0.42216320  0.59497860  0.08817990    -0.02100
O1239       O  0.38125582  0.66543184  0.20241045    -0.81400
C1240       C  0.28206520  0.63959892  0.14922050     0.98000
O1241       O  0.28527654  0.62126132  0.16049520    -0.70500
O1242       O  0.33787723  0.62393873  0.15234000    -0.74100
Al1243     Al  0.31859686  0.62572197  0.17686619     1.49000
C1244       C  0.36635372  0.63582453  0.14990488     0.93200
O1245       O  0.38477643  0.70802579  0.15354720    -0.80300
O1246       O  0.33809537  0.70955602  0.20027477    -0.73900
Al1247     Al  0.38019770  0.68558117  0.17786416     1.90100
O1248       O  0.34844196  0.71891840  0.15896731    -0.72900
O1249       O  0.28635301  0.65903224  0.19230139    -0.72800
O1250       O  0.29898796  0.66779417  0.15151182    -0.78400
O1251       O  0.29688388  0.62345544  0.20128028    -0.76600
O1252       O  0.33954893  0.66625202  0.17702332    -1.12800
O1253       O  0.34685406  0.62001730  0.19278810    -0.72000
C1254       C  0.36997964  0.63700511  0.20319458     0.98800
C1255       C  0.37161710  0.72286236  0.14917286     0.95100
Al1256     Al  0.31970471  0.68704111  0.17599674     1.55600
O1257       O  0.38451872  0.65715398  0.16124104    -0.76600
C1258       C  0.28013833  0.63539278  0.20237556     0.99300
C1259       C  0.36650681  0.72520081  0.20285384     0.94200
O1260       O  0.38441457  0.71832675  0.19402170    -0.81900
N1261       N  0.03772126  0.76465957  0.97710022    -0.36200
N1262       N  0.02370445  0.79973035  0.00638632    -0.56700
N1263       N  0.51073273  0.75479315  0.03596234    -0.36200
N1264       N  0.02741129  0.71956867  0.00839774    -0.56700
C1265       C  0.04760279  0.79081186  0.96643216     0.27400
C1266       C  0.04678015  0.74730427  0.96690356     0.27400
C1267       C  0.50862091  0.77555848  0.04749032     0.27400
C1268       C  0.50992470  0.73351678  0.04871732     0.27400
C1269       C  0.03046323  0.81840335  0.99018367     0.36000
C1270       C  0.51218687  0.81124335  0.02036249     0.36000
C1271       C  0.03022186  0.70491597  0.99214741     0.36000
C1272       C  0.51136673  0.69875044  0.02281843     0.36000
C1273       C  0.06198638  0.78928617  0.94875089    -0.21500
C1274       C  0.06181477  0.76221516  0.94919804    -0.21500
C1275       C  0.50711871  0.76783985  0.06787185    -0.21500
C1276       C  0.50809330  0.74129785  0.06866406    -0.21500
C1277       C  0.02325780  0.84088732  0.99453558    -0.22500
C1278       C  0.51028124  0.83590515  0.01324763    -0.22500
C1279       C  0.02076293  0.67501222  0.99724554    -0.22500
C1280       C  0.50460946  0.67041357  0.01578823    -0.22500
C1281       C  0.04378751  0.81595996  0.97179760    -0.17900
C1282       C  0.04148054  0.71811932  0.97278122    -0.17900
C1283       C  0.50501939  0.70484918  0.04268533    -0.17900
C1284       C  0.50318211  0.79841103  0.03996568    -0.17900
H1285       H  0.07162205  0.80581419  0.93655760     0.15000
H1286       H  0.07168104  0.75448651  0.93767516     0.15000
H1287       H  0.50412536  0.77937838  0.08072020     0.15000
H1288       H  0.50580297  0.72820395  0.08226208     0.15000
H1289       H  0.02674126  0.85985531  0.98512224     0.13300
H1290       H  0.50183517  0.84881497  0.02128159     0.13300
H1291       H  0.02035555  0.65768515  0.98751907     0.13300
H1292       H  0.49384837  0.64914774  0.02412198     0.13300
H1293       H  0.02375696  0.75810810  0.98985081     0.26600
H1294       H  0.50665348  0.75210562  0.02045451     0.26600
N1295       N  0.24489473  0.75560033  0.96873589    -0.36200
N1296       N  0.21034686  0.70831566  0.99894215    -0.56700
N1297       N  0.25910752  0.74231156  0.02855094    -0.36200
N1298       N  0.29359965  0.78818400  0.99821073    -0.56700
C1299       C  0.21677675  0.74081127  0.96034297     0.27400
C1300       C  0.25880124  0.78424103  0.96103714     0.27400
C1301       C  0.24240416  0.71461589  0.03738380     0.27400
C1302       C  0.28767798  0.75479049  0.03625916     0.27400
C1303       C  0.18840625  0.70069359  0.98477116     0.36000
C1304       C  0.19587211  0.69625328  0.01682651     0.36000
C1305       C  0.30429062  0.80936956  0.98328969     0.36000
C1306       C  0.31362061  0.79988879  0.01364168     0.36000
C1307       C  0.21242030  0.76080527  0.94827365    -0.21500
C1308       C  0.23912992  0.78773447  0.94813383    -0.21500
C1309       C  0.26080237  0.70938915  0.05045784    -0.21500
C1310       C  0.28913894  0.73477983  0.04996242    -0.21500
C1311       C  0.15996877  0.68581633  0.99411018    -0.22500
C1312       C  0.16468141  0.68240155  0.01429295    -0.22500
C1313       C  0.33119825  0.83455903  0.98921916    -0.22500
C1314       C  0.33691116  0.82869723  0.00855497    -0.22500
C1315       C  0.19416383  0.71017908  0.96408888    -0.17900
C1316       C  0.28852279  0.80789689  0.96536417    -0.17900
C1317       C  0.31250342  0.78389806  0.03152263    -0.17900
C1318       C  0.21064116  0.69479376  0.03467465    -0.17900
H1319       H  0.19177039  0.75681280  0.94076131     0.15000
H1320       H  0.24306297  0.80800043  0.94005754     0.15000
H1321       H  0.25467625  0.68926617  0.05933712     0.15000
H1322       H  0.30875261  0.73788868  0.05847162     0.15000
H1323       H  0.13809621  0.67932062  0.98740730     0.13300
H1324       H  0.14720344  0.67125754  0.02583768     0.13300
H1325       H  0.34481046  0.85539670  0.98075262     0.13300
H1326       H  0.35615990  0.84387066  0.01773511     0.13300
H1327       H  0.25472186  0.74597272  0.97786013     0.26600
H1328       H  0.25058832  0.75298220  0.01921346     0.26600
C1329       C  0.01599886  0.74914841  0.41770811    -0.02100
C1330       C  0.25636731  0.76184405  0.41743158    -0.02100
C1331       C  0.24288704  0.98521636  0.41750207    -0.02100
O1332       O  0.11646091  0.78264694  0.52177734    -0.81400
C1333       C  0.19604426  0.88828106  0.48019358     0.98000
O1334       O  0.16758873  0.87148756  0.48273711    -0.70500
O1335       O  0.11498638  0.82040304  0.49004125    -0.74100
Al1336     Al  0.14777467  0.84900951  0.50688610     1.49000
C1337       C  0.11167172  0.79835754  0.47943678     0.93200
O1338       O  0.18061728  0.78834426  0.48779858    -0.80300
O1339       O  0.21548468  0.82346405  0.52463573    -0.73900
Al1340     Al  0.15097773  0.78983287  0.50515293     1.90100
O1341       O  0.21707859  0.83547271  0.48395291    -0.72900
O1342       O  0.21044425  0.87217766  0.53280407    -0.72800
O1343       O  0.21451089  0.88510624  0.49147973    -0.78400
O1344       O  0.17510692  0.88266602  0.52372046    -0.76600
O1345       O  0.16984305  0.83020994  0.50688501    -1.12800
O1346       O  0.12498153  0.82778922  0.53076908    -0.72000
C1347       C  0.10887109  0.79907577  0.53187448     0.98800
C1348       C  0.20461932  0.80795634  0.47896715     0.95100
Al1349     Al  0.21063742  0.85206451  0.50821180     1.55600
O1350       O  0.13022977  0.78880510  0.48113519    -0.76600
C1351       C  0.19825289  0.88857199  0.53423618     0.99300
C1352       C  0.19761481  0.79793020  0.53257327     0.94200
O1353       O  0.16947787  0.78481343  0.52884208    -0.81900
C1354       C  0.15892406  0.57097217  0.23956817    -0.02100
C1355       C  0.42547554  0.84495138  0.24164653    -0.02100
C1356       C  0.42951106  0.57572500  0.24236135    -0.02100
O1357       O  0.00454054  0.54053962  0.12814838    -0.81400
C1358       C  0.47950778  0.93930763  0.17799809     0.98000
O1359       O  0.46076638  0.94338979  0.16786999    -0.70500
O1360       O  0.46187369  0.99433413  0.17696739    -0.74100
Al1361     Al  0.46383783  0.97583936  0.15188156     1.49000
C1362       C  0.47293253  0.52147032  0.18052121     0.93200
O1363       O  0.04445111  0.53873550  0.17675636    -0.80300
O1364       O  0.04808970  0.99822514  0.12497922    -0.73900
Al1365     Al  0.02350046  0.53731582  0.15246531     1.90100
O1366       O  0.05716402  0.50478328  0.16822217    -0.72900
O1367       O  0.49757468  0.94472740  0.13326213    -0.72800
O1368       O  0.00763827  0.95370210  0.17355230    -0.78400
O1369       O  0.46054198  0.95450884  0.12731040    -0.76600
O1370       O  0.00437711  0.99640708  0.15086771    -1.12800
O1371       O  0.45759296  0.50396414  0.13706447    -0.72000
C1372       C  0.47499882  0.52726030  0.12667623     0.98800
C1373       C  0.06074955  0.52657050  0.17928351     0.95100
Al1374     Al  0.02578808  0.97697557  0.14932867     1.55600
O1375       O  0.49416991  0.53982755  0.16895183    -0.76600
C1376       C  0.47298480  0.93855178  0.12444867     0.99300
C1377       C  0.06416511  0.52633488  0.12612992     0.94200
O1378       O  0.05690776  0.54276110  0.13633894    -0.81900
N1379       N  0.10571136  0.68416460  0.35688257    -0.36200
N1380       N  0.05673999  0.66714758  0.32689633    -0.56700
N1381       N  0.09077963  0.65144129  0.29838461    -0.36200
N1382       N  0.13832768  0.66597625  0.32923468    -0.56700
C1383       C  0.08622514  0.68964870  0.36780380     0.27400
C1384       C  0.12909844  0.68872161  0.36920110     0.27400
C1385       C  0.06351844  0.63919973  0.28879550     0.27400
C1386       C  0.10674906  0.63935435  0.28984669     0.27400
C1387       C  0.04747316  0.68054407  0.34073689     0.36000
C1388       C  0.03819634  0.66050147  0.31063734     0.36000
C1389       C  0.15910304  0.67636242  0.34431538     0.36000
C1390       C  0.15114859  0.65919369  0.31354032     0.36000
C1391       C  0.09705323  0.69720826  0.38749156    -0.21500
C1392       C  0.12416309  0.69720735  0.38826421    -0.21500
C1393       C  0.06298399  0.62028923  0.27343186    -0.21500
C1394       C  0.08976953  0.61993805  0.27435735    -0.21500
C1395       C  0.02285759  0.68237683  0.33317403    -0.22500
C1396       C  0.01664769  0.66920057  0.31434280    -0.22500
C1397       C  0.18478087  0.67505163  0.33829557    -0.22500
C1398       C  0.18002866  0.66489590  0.31872495    -0.22500
C1399       C  0.06029406  0.69058038  0.36028364    -0.17900
C1400       C  0.15570106  0.68752491  0.36335436    -0.17900
C1401       C  0.13631899  0.64524271  0.29528448    -0.17900
C1402       C  0.03908024  0.64466309  0.29320208    -0.17900
H1403       H  0.08702865  0.70315327  0.39996246     0.15000
H1404       H  0.13862330  0.70353413  0.40144530     0.15000
H1405       H  0.04523162  0.60775743  0.26252835     0.15000
H1406       H  0.09575103  0.60650888  0.26468918     0.15000
H1407       H  0.01033040  0.69190497  0.34047442     0.13300
H1408       H  0.49257554  0.65804114  0.30672293     0.13300
H1409       H  0.20496738  0.68069630  0.34702413     0.13300
H1410       H  0.19579668  0.66134266  0.30956140     0.13300
H1411       H  0.10456944  0.68070792  0.34140778     0.26600
H1412       H  0.09906468  0.66877820  0.30893100     0.26600
N1413       N  0.33456981  0.91768847  0.36220671    -0.36200
N1414       N  0.34886338  0.88642450  0.33111761    -0.56700
N1415       N  0.35552001  0.93327158  0.30196590    -0.36200
N1416       N  0.34378244  0.96568145  0.33425090    -0.56700
C1417       C  0.33539489  0.89596266  0.37364729     0.27400
C1418       C  0.33124034  0.93652319  0.37505219     0.27400
C1419       C  0.36755460  0.91896526  0.29119121     0.27400
C1420       C  0.36594130  0.96104740  0.29331375     0.27400
C1421       C  0.33830557  0.86452670  0.34566870     0.36000
C1422       C  0.35143592  0.87366550  0.31377138     0.36000
C1423       C  0.33014558  0.97229224  0.34951801     0.36000
C1424       C  0.34492312  0.98281889  0.31815618     0.36000
C1425       C  0.33338565  0.90156695  0.39407980    -0.21500
C1426       C  0.33059722  0.92709935  0.39495132    -0.21500
C1427       C  0.38458860  0.93744607  0.27505032    -0.21500
C1428       C  0.38435732  0.96407963  0.27678724    -0.21500
C1429       C  0.33462732  0.83777188  0.33761933    -0.22500
C1430       C  0.34343700  0.84369022  0.31749732    -0.22500
C1431       C  0.32316346  0.99421818  0.34321197    -0.22500
C1432       C  0.33281368  0.00109613  0.32334364    -0.22500
C1433       C  0.33225665  0.86852807  0.36614987    -0.17900
C1434       C  0.32428318  0.95910700  0.36915452    -0.17900
C1435       C  0.35851257  0.98346487  0.29926138    -0.17900
C1436       C  0.36347871  0.88960823  0.29522299    -0.17900
H1437       H  0.33220784  0.88763993  0.40695217     0.15000
H1438       H  0.32704494  0.93679376  0.40860517     0.15000
H1439       H  0.39637688  0.93271940  0.26312911     0.15000
H1440       H  0.39658819  0.98345305  0.26685042     0.15000
H1441       H  0.32686943  0.81638381  0.34549188     0.13300
H1442       H  0.34381088  0.82766983  0.30689255     0.13300
H1443       H  0.31248057  0.00436853  0.35204553     0.13300
H1444       H  0.32277912  0.51330927  0.31163261     0.13300
H1445       H  0.33067021  0.91648865  0.34670404     0.26600
H1446       H  0.33916736  0.92366053  0.31340343     0.26600
N1447       N  0.09747446  0.90261011  0.35562486    -0.36200
N1448       N  0.12658017  0.94965333  0.32575015    -0.56700
N1449       N  0.07534131  0.91424250  0.29863180    -0.36200
N1450       N  0.04698741  0.86688471  0.32786600    -0.56700
C1451       C  0.12642976  0.91837163  0.36238924     0.27400
C1452       C  0.08559220  0.87390987  0.36272892     0.27400
C1453       C  0.09519156  0.93614166  0.28588855     0.27400
C1454       C  0.05216369  0.89336964  0.28725738     0.27400
C1455       C  0.14319742  0.96455813  0.34211159     0.36000
C1456       C  0.13172297  0.97091994  0.31159378     0.36000
C1457       C  0.03597761  0.85271055  0.34586484     0.36000
C1458       C  0.02272878  0.85878830  0.31572112     0.36000
C1459       C  0.13334832  0.89942937  0.37355817    -0.21500
C1460       C  0.10762457  0.87118905  0.37359124    -0.21500
C1461       C  0.08489784  0.92909170  0.26611289    -0.21500
C1462       C  0.05760836  0.90251499  0.26697093    -0.21500
C1463       C  0.15918443  0.99548628  0.33837213    -0.22500
C1464       C  0.15189429  0.99956492  0.31892281    -0.22500
C1465       C  0.00452805  0.83592832  0.34539308    -0.22500
C1466       C  0.99621138  0.83862193  0.32607075    -0.22500
C1467       C  0.14590824  0.94979978  0.35944352    -0.17900
C1468       C  0.05445639  0.85152033  0.36138305    -0.17900
C1469       C  0.02483054  0.86874930  0.29527239    -0.17900
C1470       C  0.11938678  0.96454831  0.29189234    -0.17900
H1471       H  0.15471595  0.90533157  0.38080657     0.15000
H1472       H  0.10524991  0.85111955  0.38111721     0.15000
H1473       H  0.09501513  0.94271208  0.25257052     0.15000
H1474       H  0.04315729  0.89250034  0.25399321     0.15000
H1475       H  0.17472984  0.01311420  0.34845861     0.13300
H1476       H  0.16303602  0.52089467  0.30917575     0.13300
H1477       H  0.98918945  0.82188698  0.35737048     0.13300
H1478       H  0.47572105  0.82377519  0.31760780     0.13300
H1479       H  0.08531803  0.91185462  0.34877925     0.26600
H1480       H  0.07522024  0.91623708  0.31432901     0.26600
C1481       C  0.34647505  0.91848129  0.75556178    -0.02100
C1482       C  0.08125287  0.65286060  0.75106251    -0.02100
C1483       C  0.07830280  0.91567881  0.75228646    -0.02100
O1484       O  0.04915164  0.99725544  0.86525757    -0.81400
C1485       C  0.44620643  0.97089049  0.81487742     0.98000
O1486       O  0.45080466  0.95251164  0.82517008    -0.70500
O1487       O  0.00312640  0.95242816  0.81871953    -0.74100
Al1488     Al  0.48206121  0.95633945  0.84321546     1.49000
C1489       C  0.03122661  0.96513876  0.81488994     0.93200
O1490       O  0.04682908  0.53753667  0.81644853    -0.80300
O1491       O  0.00459672  0.54059167  0.86557894    -0.73900
Al1492     Al  0.04422329  0.51563036  0.84085851     1.90100
O1493       O  0.01218538  0.54970809  0.82417702    -0.72900
O1494       O  0.45062251  0.99177776  0.85858273    -0.72800
O1495       O  0.46128884  0.99905159  0.81810312    -0.78400
O1496       O  0.45848903  0.95443750  0.86672509    -0.76600
O1497       O  0.00563213  0.99797854  0.84158445    -1.12800
O1498       O  0.01116496  0.95166934  0.85947874    -0.72000
C1499       C  0.03571556  0.96892365  0.86848529     0.98800
C1500       C  0.03437265  0.55343850  0.81327489     0.95100
Al1501     Al  0.48337613  0.51818489  0.84247166     1.55600
O1502       O  0.04985733  0.98869478  0.82419284    -0.76600
C1503       C  0.44308229  0.96772358  0.86842078     0.99300
C1504       C  0.03320680  0.55624501  0.86725135     0.94200
O1505       O  0.05004575  0.54905345  0.85729287    -0.81900
C1506       C  0.25740086  0.50643447  0.57582829    -0.02100
C1507       C  0.48662416  0.73904677  0.57527631    -0.02100
C1508       C  0.25486072  0.73522324  0.57288580    -0.02100
O1509       O  0.37909909  0.65899795  0.46092954    -0.81400
C1510       C  0.30533750  0.69040728  0.51043068     0.98000
O1511       O  0.32804265  0.70827207  0.49955078    -0.70500
O1512       O  0.37932177  0.70693114  0.50666493    -0.74100
Al1513     Al  0.35640057  0.70249183  0.48273821     1.49000
C1514       C  0.39384303  0.69333181  0.51083059     0.93200
O1515       O  0.33659120  0.62018596  0.50982972    -0.80300
O1516       O  0.29154542  0.61974796  0.46129246    -0.73900
Al1517     Al  0.35587522  0.64091429  0.48512722     1.90100
O1518       O  0.29017863  0.60880591  0.50241233    -0.72900
O1519       O  0.29030930  0.67066943  0.46870959    -0.72800
O1520       O  0.29445869  0.66209080  0.50911518    -0.78400
O1521       O  0.33631242  0.70364915  0.45838522    -0.76600
O1522       O  0.33602563  0.66186056  0.48427278    -1.12800
O1523       O  0.38890436  0.70564228  0.46596013    -0.72000
C1524       C  0.39509472  0.68712009  0.45741206     0.98800
C1525       C  0.30836931  0.60443097  0.51311889     0.95100
Al1526     Al  0.29532083  0.64208449  0.48520803     1.55600
O1527       O  0.38830837  0.66929531  0.50172870    -0.76600
C1528       C  0.30791557  0.69332822  0.45783843     0.99300
C1529       C  0.30285108  0.60266766  0.45921682     0.94200
O1530       O  0.32660075  0.60767207  0.46878378    -0.81900
N1531       N  0.39878438  0.79564324  0.64280092    -0.36200
N1532       N  0.44829604  0.81488466  0.67100860    -0.56700
N1533       N  0.41577259  0.83430057  0.69846988    -0.36200
N1534       N  0.36626114  0.81533435  0.66913862    -0.56700
C1535       C  0.41315483  0.78062567  0.63653473     0.27400
C1536       C  0.36971982  0.77964053  0.63618851     0.27400
C1537       C  0.44345285  0.84706425  0.70763716     0.27400
C1538       C  0.40037163  0.84742178  0.70658375     0.27400
C1539       C  0.46101535  0.80789071  0.65526872     0.36000
C1540       C  0.46933400  0.82595674  0.68586752     0.36000
C1541       C  0.34900801  0.80919198  0.65225462     0.36000
C1542       C  0.35735390  0.83020482  0.68192584     0.36000
C1543       C  0.39283208  0.75428973  0.62663381    -0.21500
C1544       C  0.36532276  0.75353732  0.62654880    -0.21500
C1545       C  0.44529231  0.86820371  0.72167342    -0.21500
C1546       C  0.41833563  0.86820635  0.72110731    -0.21500
C1547       C  0.49057269  0.81548636  0.66003829    -0.22500
C1548       C  0.49472937  0.82417313  0.67985548    -0.22500
C1549       C  0.32999813  0.82140926  0.65401078    -0.22500
C1550       C  0.33392434  0.83300795  0.67319247    -0.22500
C1551       C  0.44477419  0.79155508  0.63791840    -0.17900
C1552       C  0.34838489  0.79001609  0.63650392    -0.17900
C1553       C  0.37157857  0.84341631  0.70057555    -0.17900
C1554       C  0.46797760  0.84160517  0.70334408    -0.17900
H1555       H  0.39757557  0.73769983  0.61981140     0.15000
H1556       H  0.34465098  0.73624127  0.61957412     0.15000
H1557       H  0.46455876  0.88333936  0.73083283     0.15000
H1558       H  0.41342152  0.88338654  0.72958698     0.15000
H1559       H  0.01058462  0.82294035  0.64620916     0.13300
H1560       H  0.01904613  0.83735108  0.68386123     0.13300
H1561       H  0.31441949  0.82166644  0.64292069     0.13300
H1562       H  0.32144538  0.84326100  0.67949661     0.13300
H1563       H  0.40930314  0.81759714  0.64860444     0.26600
H1564       H  0.40737833  0.81676980  0.68802327     0.26600
N1565       N  0.17798923  0.58230802  0.63402864    -0.36200
N1566       N  0.16299667  0.53392285  0.66231367    -0.56700
N1567       N  0.15575985  0.57084793  0.69435003    -0.36200
N1568       N  0.16860559  0.61802664  0.66436642    -0.56700
C1569       C  0.17612958  0.56064636  0.62132902     0.27400
C1570       C  0.17892505  0.60469952  0.62240789     0.27400
C1571       C  0.14286896  0.54317959  0.70343465     0.27400
C1572       C  0.14569213  0.58762366  0.70434791     0.27400
C1573       C  0.17469511  0.52457212  0.64724773     0.36000
C1574       C  0.16014123  0.51691418  0.67890239     0.36000
C1575       C  0.18267957  0.63964762  0.64993479     0.36000
C1576       C  0.16817533  0.63250695  0.68139462     0.36000
C1577       C  0.17517793  0.56902581  0.60137138    -0.21500
C1578       C  0.17684416  0.59686962  0.60204777    -0.21500
C1579       C  0.12572446  0.54312463  0.72007955    -0.21500
C1580       C  0.12710745  0.57080534  0.72041920    -0.21500
C1581       C  0.17910938  0.50130719  0.65421608    -0.22500
C1582       C  0.16923912  0.49596780  0.67412831    -0.22500
C1583       C  0.19118320  0.66800639  0.65784297    -0.22500
C1584       C  0.18153380  0.66338282  0.67774584    -0.22500
C1585       C  0.18044330  0.53629552  0.62715543    -0.17900
C1586       C  0.18657840  0.63378220  0.62951464    -0.17900
C1587       C  0.15302784  0.61781593  0.69952232    -0.17900
C1588       C  0.14640985  0.51807008  0.69745511    -0.17900
H1589       H  0.17488746  0.55700560  0.58774958     0.15000
H1590       H  0.17810207  0.61057105  0.58901732     0.15000
H1591       H  0.11333882  0.52511008  0.73103191     0.15000
H1592       H  0.11567996  0.57765716  0.73135245     0.15000
H1593       H  0.18777952  0.48895556  0.64573606     0.13300
H1594       H  0.17232084  0.97974662  0.68569882     0.13300
H1595       H  0.20264826  0.68970934  0.65006637     0.13300
H1596       H  0.18395044  0.68067740  0.68833752     0.13300
H1597       H  0.18424319  0.58445781  0.64927040     0.26600
H1598       H  0.17202360  0.57837971  0.68272459     0.26600
N1599       N  0.42340035  0.57450459  0.69662394    -0.36200
N1600       N  0.45509843  0.62054297  0.66645647    -0.56700
N1601       N  0.40634553  0.58317865  0.63701160    -0.36200
N1602       N  0.37279350  0.53885752  0.66878662    -0.56700
C1603       C  0.44629134  0.59564178  0.70800360     0.27400
C1604       C  0.40232780  0.55410097  0.70960031     0.27400
C1605       C  0.42166000  0.60957869  0.62640297     0.27400
C1606       C  0.37969839  0.56545159  0.62719455     0.27400
C1607       C  0.47770068  0.63084930  0.68041038     0.36000
C1608       C  0.46653749  0.63832900  0.64972508     0.36000
C1609       C  0.36469170  0.51879568  0.68438883     0.36000
C1610       C  0.35533464  0.52342566  0.65275565     0.36000
C1611       C  0.43944996  0.58885130  0.72845461    -0.21500
C1612       C  0.41168977  0.56265372  0.72946945    -0.21500
C1613       C  0.40519199  0.60767425  0.60904257    -0.21500
C1614       C  0.37873768  0.58038474  0.60975932    -0.21500
C1615       C  0.50364184  0.65546978  0.67253402    -0.22500
C1616       C  0.49634446  0.66076692  0.65341207    -0.22500
C1617       C  0.34162000  0.49058005  0.67832600    -0.22500
C1618       C  0.33552763  0.49359594  0.65835094    -0.22500
C1619       C  0.47456712  0.61901579  0.70042923    -0.17900
C1620       C  0.37760816  0.52560996  0.70407726    -0.17900
C1621       C  0.35600728  0.53623446  0.63340740    -0.17900
C1622       C  0.45005456  0.63552390  0.63161517    -0.17900
H1623       H  0.45350309  0.60099736  0.74127917     0.15000
H1624       H  0.40029367  0.55047637  0.74324900     0.15000
H1625       H  0.41126971  0.62422944  0.59694258     0.15000
H1626       H  0.36077801  0.57281481  0.59864733     0.15000
H1627       H  0.02571677  0.67210464  0.67889046     0.13300
H1628       H  0.01199831  0.68310349  0.64262967     0.13300
H1629       H  0.33309436  0.96730310  0.68381732     0.13300
H1630       H  0.31865004  0.47581464  0.64894754     0.13300
H1631       H  0.42459809  0.57112589  0.68119311     0.26600
H1632       H  0.41439166  0.57710877  0.64959026     0.26600
C1633       C  0.28547506  0.74340736  0.53952105    -0.20900
C1634       C  0.26383209  0.72309191  0.55371476    -0.08900
C1635       C  0.25034631  0.69174656  0.54897176     0.29900
C1636       C  0.26422931  0.68167382  0.53512102    -0.20900
C1637       C  0.29025189  0.70224703  0.52417534    -0.08900
C1638       C  0.29959965  0.73335312  0.52552481     0.29900
F1639       F  0.32296132  0.75418302  0.51392720    -0.19500
H1640       H  0.29399254  0.76754048  0.54084137     0.18300
H1641       H  0.25428905  0.65747206  0.53293026     0.18300
F1642       F  0.22326441  0.67049032  0.55703075    -0.19400
C1643       C  0.27426135  0.76211993  0.60674018    -0.20900
C1644       C  0.28202554  0.75559239  0.58735999    -0.08900
C1645       C  0.31318971  0.76413001  0.58439248     0.29900
C1646       C  0.33445063  0.77861466  0.59974701    -0.20900
C1647       C  0.32532181  0.78015316  0.61967968    -0.08900
C1648       C  0.29437023  0.77058144  0.62306323     0.29900
F1649       F  0.28273217  0.76697112  0.64216648    -0.19500
H1650       H  0.25104248  0.75644707  0.61005013     0.18300
H1651       H  0.35814598  0.78606505  0.59642409     0.18300
F1652       F  0.32402214  0.75714374  0.56774315    -0.19400
C1653       C  0.24714124  0.69064737  0.59463297    -0.20900
C1654       C  0.23429122  0.70808497  0.58730111    -0.08900
C1655       C  0.20577886  0.70183761  0.59576033     0.29900
C1656       C  0.18995623  0.67726949  0.60910994    -0.20900
C1657       C  0.20266310  0.65953328  0.61520002    -0.08900
C1658       C  0.23156393  0.66668342  0.60810951     0.29900
F1659       F  0.24489721  0.65055480  0.61442358    -0.19500
H1660       H  0.26963357  0.69567899  0.58964737     0.18300
H1661       H  0.16811559  0.67259805  0.61523233     0.18300
F1662       F  0.19411459  0.72050086  0.59294406    -0.19400
C1663       C  0.44208209  0.69557387  0.55497363    -0.20900
C1664       C  0.46320836  0.72699304  0.55730065    -0.08900
C1665       C  0.46295916  0.74663573  0.54197862     0.29900
C1666       C  0.43978096  0.73598781  0.52732615    -0.20900
C1667       C  0.41763490  0.70515726  0.52658628    -0.08900
C1668       C  0.41956418  0.68500585  0.54021513     0.29900
F1669       F  0.39920137  0.65485626  0.53954795    -0.19500
H1670       H  0.44243285  0.67830724  0.56439795     0.18300
H1671       H  0.43952040  0.75172901  0.51626331     0.18300
F1672       F  0.48456881  0.77642735  0.54157193    -0.19400
C1673       C  0.46183591  0.77214587  0.58543594    -0.20900
C1674       C  0.48210958  0.76116197  0.58954660    -0.08900
C1675       C  0.49397469  0.76567822  0.60955900     0.29900
C1676       C  0.48005953  0.77269512  0.62530003    -0.20900
C1677       C  0.45978286  0.78334989  0.62122034    -0.08900
C1678       C  0.45257702  0.78490172  0.60073709     0.29900
F1679       F  0.43466746  0.79682676  0.59561620    -0.19500
H1680       H  0.45189168  0.77042652  0.57078446     0.18300
H1681       H  0.48462421  0.76862021  0.64068299     0.18300
F1682       F  0.51575624  0.75856683  0.61448151    -0.19400
C1683       C  0.45149512  0.69901107  0.60086784    -0.20900
C1684       C  0.47934170  0.71148282  0.58974500    -0.08900
C1685       C  0.49858153  0.69911060  0.59382377     0.29900
C1686       C  0.48873559  0.67392391  0.60688201    -0.20900
C1687       C  0.46136591  0.66258401  0.61792227    -0.08900
C1688       C  0.44355137  0.67637821  0.61537640     0.29900
F1689       F  0.41751129  0.66691680  0.62634868    -0.19500
H1690       H  0.43594812  0.70763492  0.59860963     0.18300
H1691       H  0.50294471  0.66368953  0.60877520     0.18300
F1692       F  0.02719496  0.71290987  0.58399279    -0.19400
C1693       C  0.26501815  0.55901279  0.53019474    -0.20900
C1694       C  0.29627693  0.58015880  0.52921061    -0.08900
C1695       C  0.31543093  0.57749115  0.54357817     0.29900
C1696       C  0.30353026  0.55447073  0.55849485    -0.20900
C1697       C  0.27217847  0.53239756  0.55925471    -0.08900
C1698       C  0.25314674  0.53570617  0.54482236     0.29900
F1699       F  0.22269314  0.51602011  0.54477357    -0.19500
H1700       H  0.24952432  0.56028760  0.51943695     0.18300
H1701       H  0.31927514  0.55499506  0.56966775     0.18300
F1702       F  0.34577407  0.59749470  0.54357018    -0.19400
C1703       C  0.27692562  0.50916492  0.61299917    -0.20900
C1704       C  0.28083696  0.50702787  0.59176363    -0.08900
C1705       C  0.30694719  0.50535892  0.58587041     0.29900
C1706       C  0.33076171  0.51259638  0.59974802    -0.20900
C1707       C  0.32855131  0.52040938  0.61997300    -0.08900
C1708       C  0.30060215  0.51674777  0.62667770     0.29900
F1709       F  0.29678582  0.52261816  0.64626558    -0.19500
H1710       H  0.25597761  0.50644343  0.61934492     0.18300
H1711       H  0.35173659  0.51408909  0.59437466     0.18300
F1712       F  0.31254162  0.00203081  0.56407386    -0.19400
C1713       C  0.20292228  0.49304824  0.58967767    -0.20900
C1714       C  0.23450263  0.51367371  0.58718863    -0.08900
C1715       C  0.24614607  0.54259083  0.59638298     0.29900
C1716       C  0.22805851  0.54919236  0.60890103    -0.20900
C1717       C  0.19765132  0.52774461  0.61270963    -0.08900
C1718       C  0.18482053  0.49977683  0.60264366     0.29900
F1719       F  0.15935839  0.98019226  0.60889988    -0.19500
H1720       H  0.19430876  0.97285045  0.58338705     0.18300
H1721       H  0.23818049  0.57112976  0.61619917     0.18300
F1722       F  0.27594055  0.56406337  0.59446990    -0.19400
C1723       C  0.03673835  0.92250556  0.80074192    -0.20900
C1724       C  0.04297910  0.95258634  0.79946274    -0.08900
C1725       C  0.06359376  0.97172192  0.78476434     0.29900
C1726       C  0.07597620  0.96045914  0.77066205    -0.20900
C1727       C  0.06728272  0.92913411  0.76991729    -0.08900
C1728       C  0.04987751  0.91132634  0.78683607     0.29900
F1729       F  0.04748057  0.88403188  0.79105353    -0.19500
H1730       H  0.02295499  0.90811644  0.81319004     0.18300
H1731       H  0.09291073  0.97734337  0.76070986     0.18300
F1732       F  0.07184046  0.00156358  0.78395475    -0.19400
C1733       C  0.02180110  0.87144335  0.74752779    -0.20900
C1734       C  0.05056271  0.89258917  0.73909316    -0.08900
C1735       C  0.05269834  0.89241301  0.71751812     0.29900
C1736       C  0.02663221  0.88057605  0.70576245    -0.20900
C1737       C  0.49573754  0.85700922  0.71647277    -0.08900
C1738       C  0.49386437  0.85313818  0.73768250     0.29900
F1739       F  0.46703780  0.83336587  0.74680020    -0.19500
H1740       H  0.01813374  0.86710893  0.76347786     0.18300
H1741       H  0.02911838  0.88606134  0.68968722     0.18300
F1742       F  0.07984680  0.90472769  0.70751259    -0.19400
C1743       C  0.13154987  0.95401502  0.73550673    -0.20900
C1744       C  0.09980516  0.94269973  0.73780710    -0.08900
C1745       C  0.08687259  0.95705008  0.72599582     0.29900
C1746       C  0.09807167  0.47556332  0.71033717    -0.20900
C1747       C  0.12976347  0.48958051  0.70960563    -0.08900
C1748       C  0.14963743  0.97988925  0.72348278     0.29900
F1749       F  0.18032490  0.99182741  0.72324676    -0.19500
H1750       H  0.14295891  0.94373742  0.74322452     0.18300
H1751       H  0.08630191  0.48437816  0.70126660     0.18300
F1752       F  0.05684491  0.94842527  0.72762253    -0.19400
C1753       C  0.07998000  0.60500106  0.76899343    -0.20900
C1754       C  0.06884033  0.62583952  0.76739320    -0.08900
C1755       C  0.04207793  0.61763950  0.77923681     0.29900
C1756       C  0.03184482  0.59492299  0.79420368    -0.20900
C1757       C  0.04577310  0.57724565  0.79705227    -0.08900
C1758       C  0.06934128  0.58187605  0.78371100     0.29900
F1759       F  0.08153167  0.56333842  0.78423044    -0.19500
H1760       H  0.09568961  0.60432832  0.75835548     0.18300
H1761       H  0.01187507  0.59033937  0.80305575     0.18300
F1762       F  0.02286417  0.62822904  0.77472075    -0.19400
C1763       C  0.03487723  0.61705014  0.73046008    -0.20900
C1764       C  0.05283355  0.64667558  0.73824566    -0.08900
C1765       C  0.04480365  0.66878263  0.73237818     0.29900
C1766       C  0.01947425  0.66086116  0.71976114    -0.20900
C1767       C  0.50201301  0.62895310  0.71371462    -0.08900
C1768       C  0.01025700  0.60952283  0.71778232     0.29900
F1769       F  0.49345291  0.57812312  0.71355137    -0.19500
H1770       H  0.04058779  0.59956496  0.73377795     0.18300
H1771       H  0.01362603  0.67799686  0.71562212     0.18300
F1772       F  0.06199421  0.69829387  0.73764230    -0.19400
C1773       C  0.11795517  0.63863624  0.70312422    -0.20900
C1774       C  0.13968094  0.63292352  0.71201359    -0.08900
C1775       C  0.14770795  0.64129855  0.73234069     0.29900
C1776       C  0.13142210  0.65168850  0.74405866    -0.20900
C1777       C  0.10508962  0.65131043  0.73626464    -0.08900
C1778       C  0.10167266  0.64873381  0.71473053     0.29900
F1779       F  0.08315562  0.65624405  0.70441786    -0.19500
H1780       H  0.11303229  0.63457370  0.68705478     0.18300
H1781       H  0.13710402  0.65659327  0.75997125     0.18300
F1782       F  0.17015278  0.63800642  0.74109481    -0.19400
C1783       C  0.37513007  0.95275239  0.78535958    -0.20900
C1784       C  0.37319774  0.93090743  0.77118237    -0.08900
C1785       C  0.39767795  0.92468298  0.77091691     0.29900
C1786       C  0.42105398  0.93766279  0.78522675    -0.20900
C1787       C  0.42216314  0.95872558  0.79930101    -0.08900
C1788       C  0.39930647  0.96666222  0.79902463     0.29900
F1789       F  0.39978715  0.98713702  0.81242130    -0.19500
H1790       H  0.35762089  0.95912204  0.78573891     0.18300
H1791       H  0.43902650  0.93191843  0.78490563     0.18300
F1792       F  0.40087225  0.90798026  0.75624411    -0.19400
C1793       C  0.38234461  0.96248391  0.73301140    -0.20900
C1794       C  0.35391956  0.94795001  0.74343331    -0.08900
C1795       C  0.33535205  0.96157427  0.74176832     0.29900
C1796       C  0.34162399  0.48700082  0.72979751    -0.20900
C1797       C  0.36907037  0.50029114  0.71872775    -0.08900
C1798       C  0.38977787  0.98588782  0.71926224     0.29900
F1799       F  0.41633710  0.99730998  0.70861933    -0.19500
H1800       H  0.39811989  0.95399475  0.73440129     0.18300
H1801       H  0.32623553  0.49594958  0.72832453     0.18300
F1802       F  0.31086442  0.95343790  0.75400847    -0.19400
C1803       C  0.34855723  0.89975298  0.71901383    -0.20900
C1804       C  0.34612597  0.89464303  0.74035333    -0.08900
C1805       C  0.34385228  0.86705023  0.74713665     0.29900
C1806       C  0.34988926  0.84916834  0.73373617    -0.20900
C1807       C  0.35830656  0.85830360  0.71339856    -0.08900
C1808       C  0.35723665  0.88371744  0.70615568     0.29900
F1809       F  0.36622083  0.89422096  0.68688352    -0.19500
H1810       H  0.34598348  0.91761396  0.71201346     0.18300
H1811       H  0.35017998  0.82933866  0.73958339     0.18300
F1812       F  0.33891190  0.85887704  0.76704101    -0.19400
C1813       C  0.43054682  0.52847456  0.22676498    -0.20900
C1814       C  0.44030186  0.55989779  0.22667296    -0.08900
C1815       C  0.46254410  0.57808211  0.21194902     0.29900
C1816       C  0.47276963  0.56528182  0.19736628    -0.20900
C1817       C  0.46185296  0.53392100  0.19689990    -0.08900
C1818       C  0.44086289  0.51559987  0.21201142     0.29900
F1819       F  0.43059762  0.48532567  0.21279732    -0.19500
H1820       H  0.41537706  0.51358870  0.23837640     0.18300
H1821       H  0.48922037  0.58023689  0.18617312     0.18300
F1822       F  0.47384998  0.60852553  0.21121659    -0.19400
C1823       C  0.47562304  0.62737689  0.25456617    -0.20900
C1824       C  0.45901825  0.59529634  0.25486073    -0.08900
C1825       C  0.47038174  0.58013111  0.26722223     0.29900
C1826       C  0.49472142  0.59612982  0.28024412    -0.20900
C1827       C  0.01123424  0.62917783  0.28026055    -0.08900
C1828       C  0.00205054  0.64509040  0.26714734     0.29900
F1829       F  0.01822633  0.67582253  0.26613489    -0.19500
H1830       H  0.46958030  0.64028513  0.24440658     0.18300
H1831       H  0.50201368  0.58369763  0.28999457     0.18300
F1832       F  0.45684748  0.54939971  0.26750683    -0.19400
C1833       C  0.40564196  0.55930587  0.27836847    -0.20900
C1834       C  0.40362809  0.55385997  0.25714966    -0.08900
C1835       C  0.37648384  0.52857724  0.25020098     0.29900
C1836       C  0.36119554  0.00768023  0.26521842    -0.20900
C1837       C  0.36924369  0.01072566  0.28586291    -0.08900
C1838       C  0.38698198  0.53659622  0.29203281     0.29900
F1839       F  0.39357485  0.54076658  0.31216006    -0.19500
H1840       H  0.42316128  0.58032433  0.28473357     0.18300
H1841       H  0.34259018  0.98650686  0.25976245     0.18300
F1842       F  0.37034118  0.52397964  0.23007157    -0.19400
C1843       C  0.47291332  0.89152941  0.22468884    -0.20900
C1844       C  0.44140047  0.86988499  0.22487673    -0.08900
C1845       C  0.42319872  0.87259170  0.20962066     0.29900
C1846       C  0.43604551  0.89469689  0.19448913    -0.20900
C1847       C  0.46737610  0.91554689  0.19407718    -0.08900
C1848       C  0.48578048  0.91384128  0.20939182     0.29900
F1849       F  0.51599979  0.93430647  0.21004129    -0.19500
H1850       H  0.48780032  0.89222096  0.23663500     0.18300
H1851       H  0.42112401  0.89545452  0.18301244     0.18300
F1852       F  0.39266630  0.85337971  0.20916780    -0.19400
C1853       C  0.47437182  0.85739044  0.28894066    -0.20900
C1854       C  0.99667117  0.85577233  0.28267941    -0.08900
C1855       C  0.99467669  0.84287840  0.26341342     0.29900
C1856       C  0.47218993  0.83851997  0.24904067    -0.20900
C1857       C  0.44854749  0.84316099  0.25648922    -0.08900
C1858       C  0.44794940  0.84711738  0.27777559     0.29900
F1859       F  0.42234910  0.84175686  0.28799541    -0.19500
H1860       H  0.47483200  0.86566282  0.30415424     0.18300
H1861       H  0.47240172  0.83247595  0.23330635     0.18300
F1862       F  0.01682911  0.83725521  0.25676378    -0.19400
C1863       C  0.42279826  0.88427723  0.26356657    -0.20900
C1864       C  0.40619661  0.85637662  0.25325805    -0.08900
C1865       C  0.37396493  0.84163544  0.25468869     0.29900
C1866       C  0.35987232  0.85239662  0.26823969    -0.20900
C1867       C  0.37746359  0.87760950  0.28060047    -0.08900
C1868       C  0.40913588  0.89324392  0.27816249     0.29900
F1869       F  0.42699831  0.91756993  0.28989661    -0.19500
H1870       H  0.44735001  0.89748078  0.26205641     0.18300
H1871       H  0.33525409  0.84097574  0.26919752     0.18300
F1872       F  0.35589387  0.81796270  0.24262148    -0.19400
C1873       C  0.10996160  0.56859874  0.22451779    -0.20900
C1874       C  0.13342812  0.56113406  0.22333193    -0.08900
C1875       C  0.13115742  0.54075883  0.20789454     0.29900
C1876       C  0.10757975  0.52979856  0.19385138    -0.20900
C1877       C  0.08509735  0.53826538  0.19473307    -0.08900
C1878       C  0.08644562  0.55774902  0.21028019     0.29900
F1879       F  0.06454532  0.56564273  0.21217299    -0.19500
H1880       H  0.10875185  0.58191106  0.23682067     0.18300
H1881       H  0.10707467  0.51462838  0.18214382     0.18300
F1882       F  0.15190644  0.53128914  0.20638669    -0.19400
C1883       C  0.12147410  0.52738634  0.26151829    -0.20900
C1884       C  0.14956451  0.54068798  0.25080305    -0.08900
C1885       C  0.16629475  0.52505819  0.25100233     0.29900
C1886       C  0.15513966  0.00009457  0.26542730    -0.20900
C1887       C  0.12896936  0.98996280  0.27750473    -0.08900
C1888       C  0.11280336  0.50273931  0.27433078     0.29900
F1889       F  0.08685876  0.49224866  0.28556047    -0.19500
H1890       H  0.10708227  0.53758236  0.26101666     0.18300
H1891       H  0.16842687  0.98871904  0.26621183     0.18300
F1892       F  0.19035962  0.53275333  0.23840722    -0.19400
C1893       C  0.15947319  0.59014429  0.27611810    -0.20900
C1894       C  0.15983802  0.59466970  0.25482737    -0.08900
C1895       C  0.16186514  0.62211240  0.24801502     0.29900
C1896       C  0.15690335  0.64035016  0.26160561    -0.20900
C1897       C  0.15052586  0.63189313  0.28216175    -0.08900
C1898       C  0.15350717  0.60759882  0.28950334     0.29900
F1899       F  0.14850005  0.59934481  0.30943591    -0.19500
H1900       H  0.16205540  0.57199399  0.28266195     0.18300
H1901       H  0.15557286  0.65967311  0.25584058     0.18300
F1902       F  0.16557267  0.62974562  0.22798664    -0.19400
C1903       C  0.21300315  0.91995223  0.56657044    -0.20900
C1904       C  0.21397572  0.91778667  0.54534402    -0.08900
C1905       C  0.23080094  0.94444331  0.53401072     0.29900
C1906       C  0.24570518  0.97267820  0.54339112    -0.20900
C1907       C  0.24325034  0.97596613  0.56459019    -0.08900
C1908       C  0.22763510  0.94857726  0.57613518     0.29900
F1909       F  0.22618718  0.94939457  0.59671067    -0.19500
H1910       H  0.20069743  0.89957015  0.57572309     0.18300
H1911       H  0.25937731  0.99178956  0.53354949     0.18300
F1912       F  0.23309121  0.94321222  0.51356770    -0.19400
C1913       C  0.23919338  0.79913306  0.55389901    -0.20900
C1914       C  0.21040272  0.78236864  0.54500820    -0.08900
C1915       C  0.19609944  0.75053039  0.54567863     0.29900
C1916       C  0.21086991  0.73609662  0.55433784    -0.20900
C1917       C  0.23910078  0.75256458  0.56433375    -0.08900
C1918       C  0.25337702  0.78473084  0.56349699     0.29900
F1919       F  0.28202426  0.80275218  0.57043036    -0.19500
H1920       H  0.25123339  0.82367446  0.55298277     0.18300
H1921       H  0.19985336  0.71161153  0.55356159     0.18300
F1922       F  0.16846757  0.73320879  0.53701680    -0.19400
C1923       C  0.07226328  0.80152438  0.55680219    -0.20900
C1924       C  0.07950094  0.78435994  0.54367511    -0.08900
C1925       C  0.05697575  0.75391894  0.54031334     0.29900
C1926       C  0.02830774  0.74135889  0.54988798    -0.20900
C1927       C  0.02104926  0.75799708  0.56380707    -0.08900
C1928       C  0.04378465  0.78899629  0.56659107     0.29900
F1929       F  0.03888921  0.80835779  0.57795893    -0.19500
H1930       H  0.08860277  0.82522868  0.55922760     0.18300
H1931       H  0.01154376  0.71809500  0.54653665     0.33300
F1932       F  0.06206737  0.73633457  0.52718682    -0.19400
C1933       C  0.26480891  0.54830565  0.45902575    -0.20900
C1934       C  0.28559260  0.57402632  0.44807546    -0.08900
C1935       C  0.28876648  0.57171223  0.42710536     0.29900
C1936       C  0.27316484  0.54325704  0.41765985    -0.20900
C1937       C  0.25490789  0.51634343  0.42905268    -0.08900
C1938       C  0.24887217  0.52007136  0.44966672     0.29900
F1939       F  0.22683467  0.49711999  0.46087128    -0.19500
H1940       H  0.26070902  0.55016104  0.47501466     0.18300
H1941       H  0.27676441  0.54200405  0.40154914     0.18300
F1942       F  0.30738195  0.59671983  0.41589493    -0.19400
C1943       C  0.18988206  0.90963595  0.44730613    -0.20900
C1944       C  0.20794765  0.91226389  0.46410030    -0.08900
C1945       C  0.23754361  0.93748167  0.46490441     0.29900
C1946       C  0.24746749  0.96061361  0.45027197    -0.20900
C1947       C  0.22890980  0.95914944  0.43380275    -0.08900
C1948       C  0.20058365  0.93175591  0.43189935     0.29900
F1949       F  0.18403082  0.92445319  0.41463669    -0.19500
H1950       H  0.16782219  0.88950086  0.44554561     0.18300
H1951       H  0.27020256  0.97985089  0.45166963     0.18300
F1952       F  0.25724636  0.93988907  0.47966729    -0.19400
C1953       C  0.31758210  0.98944466  0.39677983    -0.20900
C1954       C  0.30509116  0.96524993  0.38314929    -0.08900
C1955       C  0.27360880  0.94596842  0.38275614     0.29900
C1956       C  0.25465641  0.95230787  0.39452562    -0.20900
C1957       C  0.26637219  0.97855338  0.40673337    -0.08900
C1958       C  0.29851515  0.99552855  0.40905249     0.29900
F1959       F  0.31178148  0.01670803  0.42371601    -0.19500
H1960       H  0.34206906  0.00332316  0.39807320     0.18300
H1961       H  0.23036989  0.93731104  0.39326063     0.18300
F1962       F  0.26113234  0.92131702  0.37051066    -0.19400
C1963       C  0.20163377  0.97859572  0.36676787    -0.20900
C1964       C  0.17161550  0.96646226  0.37370791    -0.08900
C1965       C  0.16630941  0.96830454  0.39450265     0.29900
C1966       C  0.19037406  0.97850818  0.40834761    -0.20900
C1967       C  0.21943527  0.98431584  0.40183571    -0.08900
C1968       C  0.22551740  0.98838801  0.38058053     0.29900
F1969       F  0.25424530  0.00068761  0.37295619    -0.19500
H1970       H  0.20643698  0.97909366  0.35065550     0.18300
H1971       H  0.18535004  0.97805053  0.42439940     0.18300
F1972       F  0.13759235  0.95836046  0.40153100    -0.19400
C1973       C  0.29135087  0.73791556  0.41777081    -0.20900
C1974       C  0.27128119  0.74505288  0.42842964    -0.08900
C1975       C  0.26155382  0.73163128  0.44809214     0.29900
C1976       C  0.27339307  0.71467327  0.45693719    -0.20900
C1977       C  0.29506088  0.70995444  0.44683547    -0.08900
C1978       C  0.30414700  0.72182878  0.42712538     0.29900
F1979       F  0.32454063  0.71701040  0.41668371    -0.19500
H1980       H  0.29733317  0.74500257  0.40207942     0.18300
H1981       H  0.26558729  0.70524219  0.47203933     0.18300
F1982       F  0.23902491  0.73274955  0.45862876    -0.19400
C1983       C  0.19895645  0.77790545  0.44794429    -0.20900
C1984       C  0.21796163  0.79795244  0.46274780    -0.08900
C1985       C  0.24902133  0.80689132  0.46236963     0.29900
C1986       C  0.26037456  0.79460552  0.44800474    -0.20900
C1987       C  0.24132855  0.77355325  0.43322010    -0.08900
C1988       C  0.21034514  0.76657726  0.43301057     0.29900
F1989       F  0.19105740  0.75086068  0.41781393    -0.19500
H1990       H  0.17510474  0.77159228  0.44759828     0.18300
H1991       H  0.28435066  0.80146609  0.44841519     0.18300
F1992       F  0.26820295  0.82663554  0.47634305    -0.19400
C1993       C  0.20822245  0.71070280  0.40952012    -0.20900
C1994       C  0.23324561  0.73809941  0.40226491    -0.08900
C1995       C  0.23547461  0.74248381  0.38084702     0.29900
C1996       C  0.20989649  0.72677326  0.36880540    -0.20900
C1997       C  0.18316768  0.70235932  0.37671327    -0.08900
C1998       C  0.18355648  0.69273997  0.39677415     0.29900
F1999       F  0.15946745  0.66711552  0.40435532    -0.19500
H2000       H  0.20659565  0.70449235  0.42542109     0.18300
H2001       H  0.21121156  0.73341307  0.35298563     0.18300
F2002       F  0.26202347  0.76164473  0.37120192    -0.19400
C2003       C  0.28391866  0.83100308  0.38180649    -0.20900
C2004       C  0.31495701  0.84147428  0.37943592    -0.08900
C2005       C  0.32867326  0.82850280  0.39125890     0.29900
C2006       C  0.31081125  0.80406156  0.40452684    -0.20900
C2007       C  0.27876798  0.79152097  0.40563582    -0.08900
C2008       C  0.26623456  0.80711684  0.39489096     0.29900
F2009       F  0.23604911  0.79775695  0.39571181    -0.19500
H2010       H  0.27322034  0.84157044  0.37337793     0.18300
H2011       H  0.32237680  0.79541100  0.41380952     0.18300
F2012       F  0.35922216  0.83973789  0.39020363    -0.19400
C2013       C  0.45993286  0.73888259  0.42216307    -0.20900
C2014       C  0.48214618  0.73013441  0.42592121    -0.08900
C2015       C  0.47349726  0.70498091  0.43917571     0.29900
C2016       C  0.44429798  0.68961250  0.44806527    -0.20900
C2017       C  0.42305543  0.69927461  0.44462865    -0.08900
C2018       C  0.43106958  0.72384675  0.43139351     0.29900
F2019       F  0.41108455  0.73379581  0.42767916    -0.19500
H2020       H  0.46469573  0.75805073  0.41256387     0.18300
H2021       H  0.43886706  0.67109004  0.45857709     0.18300
F2022       F  0.49349734  0.69535723  0.44371906    -0.19400
C2023       C  0.06083364  0.74904468  0.43732766    -0.20900
C2024       C  0.03773327  0.75716355  0.43647620    -0.08900
C2025       C  0.03533329  0.77255568  0.45367056     0.29900
C2026       C  0.05954615  0.78632102  0.46750810    -0.20900
C2027       C  0.08536502  0.78281863  0.46552718    -0.08900
C2028       C  0.08473065  0.76243005  0.45100430     0.29900
F2029       F  0.10755844  0.75575703  0.44954375    -0.19500
H2030       H  0.06153470  0.73282832  0.42713940     0.18300
H2031       H  0.05825446  0.80006229  0.47959068     0.18300
F2032       F  0.01124104  0.77717910  0.45590048    -0.19400
C2033       C  0.04824174  0.83223897  0.39715575    -0.20900
C2034       C  0.04101267  0.82618515  0.37659062    -0.08900
C2035       C  0.02137234  0.79603291  0.37084674     0.29900
C2036       C  0.00942310  0.77301390  0.38542763    -0.20900
C2037       C  0.02098102  0.77796556  0.40550317    -0.08900
C2038       C  0.03991129  0.80879973  0.41125469     0.29900
F2039       F  0.05146314  0.81767615  0.42999128    -0.19500
H2040       H  0.06218812  0.85541154  0.40219111     0.18300
H2041       H  0.49326006  0.74963815  0.38002070     0.18300
F2042       F  0.01498807  0.78828668  0.35100848    -0.19400
C2043       C  0.05402797  0.74855286  0.39239622    -0.20900
C2044       C  0.02487531  0.73180946  0.40179153    -0.08900
C2045       C  0.00590712  0.70166837  0.39498043     0.29900
C2046       C  0.01740989  0.68824863  0.38157532    -0.20900
C2047       C  0.04706426  0.70490144  0.37357055    -0.08900
C2048       C  0.06479771  0.73551806  0.37853553     0.29900
F2049       F  0.09310712  0.75265751  0.37041665    -0.19500
H2050       H  0.06904432  0.77205501  0.39634642     0.18300
H2051       H  0.00302508  0.66480639  0.37725398     0.18300
F2052       F  0.47605844  0.68293976  0.40273375    -0.19400
C2053       C  0.38968079  0.60144538  0.20283665    -0.20900
C2054       C  0.38584488  0.62298338  0.21362817    -0.08900
C2055       C  0.39664432  0.62973112  0.23359139     0.29900
C2056       C  0.41066278  0.61458366  0.24255767    -0.20900
C2057       C  0.41602161  0.59375370  0.23146861    -0.08900
C2058       C  0.40412561  0.58685805  0.21141848     0.29900
F2059       F  0.40428420  0.56465024  0.20014237    -0.19500
H2060       H  0.38109931  0.59556983  0.18747356     0.18300
H2061       H  0.41731472  0.61908925  0.25834196     0.18300
F2062       F  0.39249445  0.64986293  0.24468160    -0.19400
C2063       C  0.37248063  0.75789908  0.23350099    -0.20900
C2064       C  0.38004806  0.75457393  0.21348031    -0.08900
C2065       C  0.40215565  0.78014057  0.20297398     0.29900
C2066       C  0.41577673  0.80852646  0.21190131    -0.20900
C2067       C  0.40786668  0.81299295  0.23175944    -0.08900
C2068       C  0.38713471  0.78660927  0.24285956     0.29900
F2069       F  0.38109912  0.78851282  0.26275196    -0.19500
H2070       H  0.35610155  0.73821164  0.24207779     0.18300
H2071       H  0.43349275  0.82681837  0.20307819     0.18300
F2072       F  0.41069645  0.77774469  0.18376269    -0.19400
C2073       C  0.24660391  0.60914149  0.23266312    -0.20900
C2074       C  0.25030288  0.61940630  0.21252559    -0.08900
C2075       C  0.22470034  0.61431522  0.20133439     0.29900
C2076       C  0.19574397  0.59809881  0.20974517    -0.20900
C2077       C  0.19112983  0.58668853  0.22983852    -0.08900
C2078       C  0.21744112  0.59404385  0.24154702     0.29900
F2079       F  0.21494365  0.58630441  0.26153119    -0.19500
H2080       H  0.26628195  0.61358015  0.24163690     0.18300
H2081       H  0.17715545  0.59572728  0.20043135     0.18300
F2082       F  0.22761950  0.62500207  0.18200723    -0.19400
C2083       C  0.43741912  0.54439138  0.12539491    -0.20900
C2084       C  0.46109823  0.54263680  0.11566014    -0.08900
C2085       C  0.47038106  0.55540479  0.09619642     0.29900
C2086       C  0.45668491  0.57073646  0.08709395    -0.20900
C2087       C  0.43545703  0.57598572  0.09790310    -0.08900
C2088       C  0.42437639  0.56018775  0.11671215     0.29900
F2089       F  0.39989314  0.55833210  0.12659980    -0.19500
H2090       H  0.42901312  0.53361608  0.14010234     0.18300
H2091       H  0.46346730  0.57947895  0.07176689     0.18300
F2092       F  0.49201828  0.55244577  0.08585271    -0.19400
C2093       C  0.37540211  0.59798851  0.10269862    -0.20900
C2094       C  0.40578453  0.60390708  0.10457082    -0.08900
C2095       C  0.42257266  0.62093535  0.12155797     0.29900
C2096       C  0.40931898  0.63060003  0.13616719    -0.20900
C2097       C  0.37920387  0.62449800  0.13421849    -0.08900
C2098       C  0.36237031  0.60828041  0.11723422     0.29900
F2099       F  0.33378285  0.60348103  0.11416501    -0.19500
H2100       H  0.36186194  0.58672824  0.08955046     0.18300
H2101       H  0.42286710  0.64305072  0.14910822     0.18300
F2102       F  0.45195171  0.62790829  0.12420074    -0.19400
C2103       C  0.45528124  0.67014781  0.05827847    -0.20900
C2104       C  0.48607425  0.67903312  0.05648741    -0.08900
C2105       C  0.49777463  0.66367584  0.06775963     0.29900
C2106       C  0.47809597  0.63803509  0.07943566    -0.20900
C2107       C  0.44617436  0.62637109  0.07911837    -0.08900
C2108       C  0.43564930  0.64464980  0.06958210     0.29900
F2109       F  0.40564341  0.63617415  0.06930221    -0.19500
H2110       H  0.44613171  0.68245444  0.05016144     0.18300
H2111       H  0.48820217  0.62751738  0.08836676     0.18300
F2112       F  0.02843295  0.67156896  0.06715662    -0.19400
C2113       C  0.44171148  0.87687875  0.08420311    -0.20900
C2114       C  0.42767631  0.85032566  0.09654745    -0.08900
C2115       C  0.42452136  0.85450792  0.11760688     0.29900
C2116       C  0.43937674  0.88340541  0.12606697    -0.20900
C2117       C  0.45603562  0.90922351  0.11396731    -0.08900
C2118       C  0.45615510  0.90602318  0.09281746     0.29900
F2119       F  0.47092245  0.93082879  0.08061018    -0.19500
H2120       H  0.44300162  0.87491146  0.06788204     0.18300
H2121       H  0.43771025  0.88567598  0.14234279     0.18300
F2122       F  0.40630697  0.83130720  0.13027029    -0.19400
C2123       C  0.37348448  0.76739152  0.10258870    -0.20900
C2124       C  0.40358191  0.79232311  0.10267586    -0.08900
C2125       C  0.42381879  0.79148833  0.11730911     0.29900
C2126       C  0.41365074  0.76826605  0.13191490    -0.20900
C2127       C  0.38314300  0.74537246  0.13253023    -0.08900
C2128       C  0.36319001  0.74494152  0.11767282     0.29900
F2129       F  0.33369855  0.72233317  0.11750703    -0.19500
H2130       H  0.35746262  0.76445288  0.09086307     0.18300
H2131       H  0.42940549  0.76879782  0.14323773     0.18300
F2132       F  0.45337226  0.81382917  0.11793454    -0.19400
C2133       C  0.39314341  0.81236644  0.05001951    -0.20900
C2134       C  0.39035731  0.81491829  0.07128908    -0.08900
C2135       C  0.36307021  0.81342672  0.07824274     0.29900
C2136       C  0.33799660  0.80378765  0.06526411    -0.20900
C2137       C  0.33991163  0.79679099  0.04487612    -0.08900
C2138       C  0.36806040  0.80205880  0.03724529     0.29900
F2139       F  0.37117087  0.79645555  0.01746069    -0.19500
H2140       H  0.41443506  0.81723469  0.04298129     0.18300
H2141       H  0.31675558  0.80095745  0.07126559     0.18300
F2142       F  0.35972801  0.81872507  0.09802883    -0.19400
C2143       C  0.43159191  0.78748656  0.06497105    -0.20900
C2144       C  0.44094146  0.81518914  0.07516528    -0.08900
C2145       C  0.47269471  0.83665026  0.07503295     0.29900
C2146       C  0.49297706  0.83158673  0.06331405    -0.20900
C2147       C  0.48244001  0.80497558  0.05207168    -0.08900
C2148       C  0.45167887  0.78282381  0.05318357     0.29900
F2149       F  0.44099338  0.75657831  0.04265924    -0.19500
H2150       H  0.40794967  0.76970999  0.06541857     0.18300
H2151       H  0.51704342  0.84815613  0.06331768     0.18300
F2152       F  0.48498429  0.86141896  0.08707059    -0.19400
C2153       C  0.11616638  0.57011767  0.12280727    -0.20900
C2154       C  0.09399925  0.54201128  0.11520141    -0.08900
C2155       C  0.10139997  0.53042789  0.09808246     0.29900
C2156       C  0.13044054  0.54707927  0.08881938    -0.20900
C2157       C  0.15325020  0.57505863  0.09695162    -0.08900
C2158       C  0.14483289  0.58644517  0.11387117     0.29900
F2159       F  0.16456656  0.61352167  0.12222446    -0.19500
H2160       H  0.11145584  0.57971886  0.13608295     0.18300
H2161       H  0.13458115  0.53815341  0.07504147     0.18300
F2162       F  0.08040820  0.50367684  0.08992328    -0.19400
C2163       C  0.20749349  0.59033751  0.12169833    -0.20900
C2164       C  0.21100743  0.60722362  0.10368465    -0.08900
C2165       C  0.24010093  0.63316364  0.10032062     0.29900
C2166       C  0.26252069  0.64376750  0.11530097    -0.20900
C2167       C  0.25793595  0.62782614  0.13354447    -0.08900
C2168       C  0.23042556  0.60045696  0.13640318     0.29900
F2169       F  0.22538354  0.58359113  0.15355949    -0.19500
H2170       H  0.18692167  0.56896664  0.12449494     0.18300
H2171       H  0.28401042  0.66420987  0.11234384     0.18300
F2172       F  0.24745516  0.64866857  0.08255297    -0.19400
C2173       C  0.19356262  0.64973140  0.08362970    -0.20900
C2174       C  0.18234921  0.62028797  0.07576656    -0.08900
C2175       C  0.16887831  0.61481118  0.05626642     0.29900
C2176       C  0.17625609  0.63918429  0.04298652    -0.20900
C2177       C  0.19374302  0.66924504  0.04971829    -0.08900
C2178       C  0.19865293  0.67392724  0.07078883     0.29900
F2179       F  0.21163834  0.70233880  0.07853006    -0.19500
H2180       H  0.20078767  0.65472696  0.09925795     0.18300
H2181       H  0.17052943  0.63438760  0.02708798     0.18300
F2182       F  0.15306777  0.58621985  0.04886524    -0.19400
C2183       C  0.37928991  0.56943539  0.03735144    -0.20900
C2184       C  0.35234117  0.54347110  0.04332276    -0.08900
C2185       C  0.35141056  0.53040749  0.06243055     0.29900
C2186       C  0.37462180  0.54632685  0.07650326    -0.20900
C2187       C  0.40028263  0.57449384  0.07126367    -0.08900
C2188       C  0.40407029  0.58270746  0.05035266     0.29900
F2189       F  0.43128766  0.60337692  0.04216887    -0.19500
H2190       H  0.38132977  0.57959322  0.02249876     0.18300
H2191       H  0.37165371  0.53748838  0.09184651     0.18300
F2192       F  0.32686008  0.50365532  0.06809104    -0.19400
C2193       C  0.22493469  0.57715922  0.04260994    -0.20900
C2194       C  0.21718663  0.54729297  0.04682116    -0.08900
C2195       C  0.20017615  0.53303324  0.06440872     0.29900
C2196       C  0.19042913  0.54853061  0.07727585    -0.20900
C2197       C  0.19573716  0.57791850  0.07228775    -0.08900
C2198       C  0.21487898  0.59248338  0.05507398     0.29900
F2199       F  0.22497877  0.62188176  0.05011289    -0.19500
H2200       H  0.23918025  0.58883318  0.02954032     0.18300
H2201       H  0.17848645  0.53736058  0.09116335     0.18300
F2202       F  0.19358661  0.50441280  0.06932310    -0.19400
C2203       C  0.28762191  0.89352207  0.75579404    -0.20900
C2204       C  0.31481505  0.90199657  0.76668307    -0.08900
C2205       C  0.31122080  0.89106394  0.78709258     0.29900
C2206       C  0.28252991  0.87537954  0.79626456    -0.20900
C2207       C  0.25625785  0.86996274  0.78595516    -0.08900
C2208       C  0.25887271  0.87903636  0.76551874     0.29900
F2209       F  0.23366956  0.87332183  0.75487920    -0.19500
H2210       H  0.28880712  0.89913474  0.73978506     0.18300
H2211       H  0.28089160  0.86768323  0.81181194     0.18300
F2212       F  0.33481555  0.89348264  0.79824496    -0.19400
C2213       C  0.08058502  0.69045553  0.77788359    -0.20900
C2214       C  0.09641862  0.68477906  0.76222699    -0.08900
C2215       C  0.12578901  0.70994447  0.75720806     0.29900
C2216       C  0.13905116  0.73681917  0.76878815    -0.20900
C2217       C  0.12312027  0.74098664  0.78480064    -0.08900
C2218       C  0.09325525  0.71765851  0.78870634     0.29900
F2219       F  0.07605273  0.72065518  0.80342748    -0.19500
H2220       H  0.05778974  0.67444448  0.78202751     0.18300
H2221       H  0.16169486  0.75485395  0.76480338     0.18300
F2222       F  0.14161930  0.71006900  0.74050176    -0.19400
C2223       C  0.10255500  0.85656836  0.76939630    -0.20900
C2224       C  0.12536360  0.87339715  0.78350530    -0.08900
C2225       C  0.13334574  0.90387767  0.78668180     0.29900
C2226       C  0.11817325  0.91664963  0.77647716    -0.20900
C2227       C  0.09512871  0.90011196  0.76218619    -0.08900
C2228       C  0.08789463  0.86956514  0.75863548     0.29900
F2229       F  0.06673076  0.85159385  0.74494822    -0.19500
H2230       H  0.09590802  0.83307087  0.76668046     0.18300
H2231       H  0.12447618  0.93989479  0.77982282     0.18300
F2232       F  0.15502914  0.92125073  0.80033788    -0.19400
C2233       C  0.03274033  0.58950181  0.89593500    -0.20900
C2234       C  0.04785837  0.58458563  0.87964403    -0.08900
C2235       C  0.07736629  0.60788243  0.87452866     0.29900
C2236       C  0.09108855  0.63508711  0.88522596    -0.20900
C2237       C  0.07605592  0.64097786  0.90124879    -0.08900
C2238       C  0.04671348  0.61694258  0.90691968     0.29900
F2239       F  0.03150475  0.61900862  0.92327277    -0.19500
H2240       H  0.01015520  0.57184460  0.90039398     0.18300
H2241       H  0.11369181  0.65236819  0.88048653     0.18300
F2242       F  0.09280040  0.60505599  0.85851516    -0.19400
C2243       C  0.12869781  0.75374272  0.88767079    -0.20900
C2244       C  0.11915821  0.74762903  0.86748551    -0.08900
C2245       C  0.09889053  0.71769289  0.86189341     0.29900
C2246       C  0.08970505  0.69394397  0.87599535    -0.20900
C2247       C  0.10143810  0.69920607  0.89600987    -0.08900
C2248       C  0.11964677  0.73006977  0.90186843     0.29900
F2249       F  0.13033784  0.73742217  0.92109338    -0.19500
H2250       H  0.14412441  0.77683419  0.89228908     0.18300
H2251       H  0.07349694  0.67147860  0.87087268     0.18300
F2252       F  0.08846123  0.71128551  0.84256697    -0.19400
C2253       C  0.17728759  0.70361511  0.92688214    -0.20900
C2254       C  0.17196069  0.69231117  0.94706003    -0.08900
C2255       C  0.14550766  0.66358837  0.94965172     0.29900
C2256       C  0.12102406  0.65461314  0.93618034    -0.20900
C2257       C  0.12319793  0.67411270  0.92003035    -0.08900
C2258       C  0.15305362  0.69509141  0.91348466     0.29900
F2259       F  0.15904056  0.70797577  0.89468031    -0.19500
H2260       H  0.19975913  0.72053354  0.92174250     0.18300
H2261       H  0.09939288  0.63479808  0.93991466     0.18300
F2262       F  0.14301508  0.64425552  0.96479092    -0.19400
C2263       C  0.03691178  0.69085791  0.93979164    -0.20900
C2264       C  0.05136093  0.70187677  0.95851225    -0.08900
C2265       C  0.07772779  0.70070464  0.96281116     0.29900
C2266       C  0.09009944  0.68978979  0.94847440    -0.20900
C2267       C  0.07642049  0.67881941  0.92918948    -0.08900
C2268       C  0.04929402  0.67971106  0.92525391     0.29900
F2269       F  0.03573040  0.67153453  0.90682200    -0.19500
H2270       H  0.01678013  0.69221974  0.93607859     0.18300
H2271       H  0.11217524  0.69317329  0.95236060     0.18300
F2272       F  0.09311106  0.71258138  0.98034030    -0.19400
C2273       C  0.39183500  0.96144761  0.87487364    -0.20900
C2274       C  0.41432823  0.95433056  0.88048616    -0.08900
C2275       C  0.40805116  0.93377376  0.89659800     0.29900
C2276       C  0.37965301  0.92043170  0.90664239    -0.20900
C2277       C  0.35611640  0.92599257  0.90017691    -0.08900
C2278       C  0.36341219  0.94773732  0.88446359     0.29900
F2279       F  0.34255502  0.95514987  0.87781540    -0.19500
H2280       H  0.39586813  0.97716798  0.86247578     0.18300
H2281       H  0.37664359  0.90612270  0.91963505     0.18300
F2282       F  0.42949563  0.92696601  0.90289551    -0.19400
C2283       C  0.26727194  0.88588095  0.90019121    -0.20900
C2284       C  0.29771163  0.89506471  0.89436642    -0.08900
C2285       C  0.30195891  0.88546065  0.87496209     0.29900
C2286       C  0.27762064  0.87109232  0.86143538    -0.20900
C2287       C  0.24827208  0.86479668  0.86686491    -0.08900
C2288       C  0.24306468  0.87166291  0.88653710     0.29900
F2289       F  0.21466573  0.86504445  0.89246564    -0.19500
H2290       H  0.26223614  0.89055606  0.91530203     0.18300
H2291       H  0.28175382  0.86474171  0.84660320     0.18300
F2292       F  0.32906474  0.88847547  0.86908375    -0.19400
C2293       C  0.32223044  0.86149817  0.92036295    -0.20900
C2294       C  0.31708642  0.88548707  0.92588238    -0.08900
C2295       C  0.30108267  0.88201799  0.94453853     0.29900
C2296       C  0.29440868  0.85807946  0.95774428    -0.20900
C2297       C  0.30083917  0.83538530  0.95234896    -0.08900
C2298       C  0.31467118  0.83699670  0.93353764     0.29900
F2299       F  0.32000005  0.81444983  0.92769283    -0.19500
H2300       H  0.33188584  0.86158512  0.90562472     0.18300
H2301       H  0.28207195  0.85601525  0.97172871     0.18300
F2302       F  0.28892308  0.89965013  0.94957139    -0.19400
C2303       C  0.30551612  0.95067096  0.91449729    -0.20900
C2304       C  0.32363858  0.93825551  0.92094341    -0.08900
C2305       C  0.34083013  0.95020648  0.93885432     0.29900
C2306       C  0.33283287  0.96598625  0.95258738    -0.20900
C2307       C  0.31105447  0.97439594  0.94747333    -0.08900
C2308       C  0.29968662  0.96893887  0.92748264     0.29900
F2309       F  0.28113517  0.97943957  0.92099564    -0.19500
H2310       H  0.29470330  0.94535322  0.89978600     0.18300
H2311       H  0.34224075  0.96955697  0.96771427     0.18300
F2312       F  0.36156687  0.94216897  0.94474032    -0.19400
C2313       C  0.08893854  0.95990565  0.90516774    -0.20900
C2314       C  0.08089469  0.92902673  0.90275872    -0.08900
C2315       C  0.05637571  0.91154952  0.88949584     0.29900
C2316       C  0.04102448  0.92433785  0.87936301    -0.20900
C2317       C  0.04971386  0.95511901  0.88163154    -0.08900
C2318       C  0.07360590  0.97262011  0.89494012     0.29900
F2319       F  0.08266664  0.00233695  0.89786790    -0.19500
H2320       H  0.10773051  0.97512417  0.91455977     0.18300
H2321       H  0.02290361  0.91020070  0.86903921     0.18300
F2322       F  0.04730526  0.88194770  0.88604712    -0.19400
C2323       C  0.11019012  0.85788149  0.87839708    -0.20900
C2324       C  0.13199121  0.87708994  0.86435621    -0.08900
C2325       C  0.14030526  0.90789656  0.86399213     0.29900
C2326       C  0.12792412  0.91931023  0.87834556    -0.20900
C2327       C  0.10935160  0.90105154  0.89460584    -0.08900
C2328       C  0.09857455  0.86917727  0.89303419     0.29900
F2329       F  0.07545542  0.84793295  0.90457127    -0.19500
H2330       H  0.10194216  0.83369150  0.87802613     0.18300
H2331       H  0.13430976  0.94304521  0.87748364     0.18300
F2332       F  0.15982701  0.92677249  0.84953734    -0.19400
C2333       C  0.10089174  0.88077708  0.93971317    -0.20900
C2334       C  0.08297619  0.89050237  0.92887544    -0.08900
C2335       C  0.05152471  0.87637505  0.93387976     0.29900
C2336       C  0.03864500  0.85166601  0.94743952    -0.20900
C2337       C  0.05700981  0.84252294  0.95778772    -0.08900
C2338       C  0.08845830  0.85836249  0.95451618     0.29900
F2339       F  0.10703770  0.85095030  0.96491614    -0.19500
H2340       H  0.12502615  0.89068528  0.93655817     0.18300
H2341       H  0.01427597  0.83986701  0.95012577     0.18300
F2342       F  0.03285347  0.88566158  0.92594466    -0.19400
C2343       C  0.14655881  0.96328696  0.95786850    -0.20900
C2344       C  0.17665421  0.97230526  0.95220960    -0.08900
C2345       C  0.18246517  0.96835829  0.93183903     0.29900
C2346       C  0.15857298  0.95149806  0.91857360    -0.20900
C2347       C  0.12789909  0.94066979  0.92433988    -0.08900
C2348       C  0.12288703  0.94956539  0.94385430     0.29900
F2349       F  0.09430706  0.94165737  0.95027350    -0.19500
H2350       H  0.14093041  0.96562763  0.97339894     0.18300
H2351       H  0.16516234  0.94637899  0.90429108     0.18300
F2352       F  0.21143338  0.97910859  0.92499847    -0.19400
C2353       C  0.59829020  0.41365668  0.91216482    -0.02100
C2354       C  0.82476802  0.40921066  0.90995970    -0.02100
C2355       C  0.59269585  0.17291621  0.91275546    -0.02100
O2356       O  0.66273011  0.37479805  0.80557634    -0.81400
C2357       C  0.63493308  0.27157055  0.85192838     0.98000
O2358       O  0.62298169  0.28764303  0.84795196    -0.70500
O2359       O  0.62429251  0.33903759  0.83985482    -0.74100
Al2360     Al  0.62716752  0.30968000  0.82333983     1.49000
C2361       C  0.64307499  0.36253832  0.84923636     0.93200
O2362       O  0.72241994  0.37268087  0.83928200    -0.80300
O2363       O  0.72067631  0.33324809  0.80700918    -0.73900
Al2364     Al  0.68999644  0.36901131  0.82222029     1.90100
O2365       O  0.70911081  0.32594700  0.84801214    -0.72900
O2366       O  0.66683438  0.28320996  0.80019947    -0.72800
O2367       O  0.65771613  0.27483875  0.84186936    -0.78400
O2368       O  0.62122680  0.27589690  0.80700412    -0.76600
O2369       O  0.66793057  0.32830061  0.82323385    -1.12800
O2370       O  0.62521280  0.32946125  0.79889604    -0.72000
C2371       C  0.63833372  0.35791473  0.79639407     0.98800
C2372       C  0.72584611  0.35416459  0.85027717     0.95100
Al2373     Al  0.68682322  0.30629875  0.82409931     1.55600
O2374       O  0.67137283  0.37434216  0.84600277    -0.76600
C2375       C  0.63831853  0.26841201  0.79756769     0.99300
C2376       C  0.72723975  0.35666136  0.79648371     0.94200
O2377       O  0.71138677  0.36945523  0.79797182    -0.81900
N2378       N  0.77677315  0.02790388  0.02658010    -0.36200
N2379       N  0.72104403  0.50480123  0.99954274    -0.56700
N2380       N  0.75203290  0.48588265  0.97114221    -0.36200
N2381       N  0.80363602  0.50500760  0.99799272    -0.56700
C2382       C  0.75995287  0.03747617  0.03705392     0.27400
C2383       C  0.80298972  0.03691617  0.03698958     0.27400
C2384       C  0.72228433  0.46955141  0.96605620     0.27400
C2385       C  0.76552276  0.46999829  0.96495281     0.27400
C2386       C  0.71952526  0.02664681  0.01109170     0.36000
C2387       C  0.70417017  0.50062403  0.98272127     0.36000
C2388       C  0.83143891  0.02352822  0.01133216     0.36000
C2389       C  0.81537000  0.50047973  0.98071391     0.36000
C2390       C  0.77530911  0.05196876  0.05458753    -0.21500
C2391       C  0.80232169  0.05185040  0.05447404    -0.21500
C2392       C  0.71654667  0.44237177  0.95740976    -0.21500
C2393       C  0.74392161  0.44271866  0.95662726    -0.21500
C2394       C  0.69706211  0.03159135  0.00295701    -0.22500
C2395       C  0.68855490  0.51653829  0.98436591    -0.22500
C2396       C  0.85745652  0.02387604  0.00407956    -0.22500
C2397       C  0.84667397  0.51385198  0.98222558    -0.22500
C2398       C  0.73259293  0.03633885  0.03059260    -0.17900
C2399       C  0.82852197  0.03406150  0.03075108    -0.17900
C2400       C  0.79731445  0.48115424  0.96498394    -0.17900
C2401       C  0.70147912  0.48056281  0.96699295    -0.17900
H2402       H  0.76861051  0.06302851  0.06586646     0.15000
H2403       H  0.81998725  0.06295170  0.06567367     0.15000
H2404       H  0.69505483  0.42458615  0.95168342     0.15000
H2405       H  0.74764619  0.42520304  0.95025507     0.15000
H2406       H  0.68606224  0.04292113  0.00994469     0.13300
H2407       H  0.67354932  0.51808908  0.97335247     0.13300
H2408       H  0.87848387  0.03033405  0.01197241     0.13300
H2409       H  0.86269439  0.51459497  0.97097943     0.13300
H2410       H  0.77058559  0.01579725  0.01318457     0.26600
H2411       H  0.76330568  0.50840015  0.97591143     0.26600
C2412       C  0.68663896  0.09567892  0.08611285    -0.02100
C2413       C  0.91633275  0.31972071  0.08701983    -0.02100
C2414       C  0.92471028  0.09848447  0.08961051    -0.02100
O2415       O  0.88017878  0.16654934  0.20322870    -0.81400
C2416       C  0.78218777  0.14050671  0.14878220     0.98000
O2417       O  0.78549730  0.12226292  0.16006131    -0.70500
O2418       O  0.83878760  0.12612418  0.15268731    -0.74100
Al2419     Al  0.81834507  0.12690116  0.17689489     1.49000
C2420       C  0.86738451  0.13858404  0.15061454     0.93200
O2421       O  0.88447295  0.21030338  0.15483365    -0.80300
O2422       O  0.83606407  0.21020115  0.20078820    -0.73900
Al2423     Al  0.87943849  0.18723105  0.17889922     1.90100
O2424       O  0.84729668  0.22013756  0.15962058    -0.72900
O2425       O  0.78468294  0.15910026  0.19209585    -0.72800
O2426       O  0.79848627  0.16872421  0.15138577    -0.78400
O2427       O  0.79542733  0.12362098  0.20097207    -0.76600
O2428       O  0.83877130  0.16743564  0.17748473    -1.12800
O2429       O  0.84634858  0.12123118  0.19309139    -0.72000
C2430       C  0.86932829  0.13817026  0.20360393     0.98800
C2431       C  0.87099914  0.22475019  0.15022984     0.95100
Al2432     Al  0.81841503  0.18776849  0.17623392     1.55600
O2433       O  0.88493482  0.15981269  0.16218172    -0.76600
C2434       C  0.77839925  0.13528102  0.20198543     0.99300
C2435       C  0.86440857  0.22575004  0.20384988     0.94200
O2436       O  0.88259576  0.21905370  0.19530639    -0.81900
N2437       N  0.53309789  0.26200588  0.97706431    -0.36200
N2438       N  0.52201232  0.29849703  0.00645103    -0.56700
N2439       N  0.01265727  0.25578267  0.03639161    -0.36200
N2440       N  0.52448631  0.21782101  0.00898226    -0.56700
C2441       C  0.54366462  0.28828842  0.96635000     0.27400
C2442       C  0.54242036  0.24460050  0.96719287     0.27400
C2443       C  0.00942082  0.27617030  0.04766267     0.27400
C2444       C  0.01359790  0.23566594  0.04941551     0.27400
C2445       C  0.52670281  0.31600457  0.98984524     0.36000
C2446       C  0.00984028  0.30952511  0.01986992     0.36000
C2447       C  0.52522697  0.20233260  0.99254908     0.36000
C2448       C  0.01558378  0.20033846  0.02407827     0.36000
C2449       C  0.55856242  0.28667838  0.94898019    -0.21500
C2450       C  0.55818191  0.25953404  0.94968422    -0.21500
C2451       C  0.00903501  0.26942869  0.06813548    -0.21500
C2452       C  0.01182216  0.24388664  0.06925711    -0.21500
C2453       C  0.51839515  0.33772318  0.99408669    -0.22500
C2454       C  0.00674626  0.33333852  0.01239698    -0.22500
C2455       C  0.51457997  0.17222168  0.99772202    -0.22500
C2456       C  0.00993567  0.17199253  0.01780133    -0.22500
C2457       C  0.53992848  0.31357294  0.97142952    -0.17900
C2458       C  0.53659297  0.21527492  0.97315297    -0.17900
C2459       C  0.00949757  0.20709375  0.04383729    -0.17900
C2460       C  0.00252405  0.29794954  0.03989216    -0.17900
H2461       H  0.56870054  0.30319255  0.93682072     0.15000
H2462       H  0.56839071  0.25177030  0.93843264     0.15000
H2463       H  0.00562811  0.28089266  0.08085944     0.15000
H2464       H  0.01061585  0.23155545  0.08302875     0.15000
H2465       H  0.52033722  0.35583695  0.98439581     0.13300
H2466       H  0.99834815  0.34631612  0.02040076     0.13300
H2467       H  0.51269558  0.15435301  0.98788539     0.13300
H2468       H  0.00080163  0.15137213  0.02679127     0.13300
H2469       H  0.51859851  0.25534435  0.98945952     0.26600
H2470       H  0.00819486  0.25223591  0.02103260     0.26600
N2471       N  0.74512066  0.25267084  0.96833773    -0.36200
N2472       N  0.71066196  0.20798878  0.99971973    -0.56700
N2473       N  0.76071553  0.24334124  0.02872271    -0.36200
N2474       N  0.79512199  0.28641650  0.99719101    -0.56700
C2475       C  0.71678583  0.23799826  0.96020596     0.27400
C2476       C  0.75955279  0.28077459  0.95979336     0.27400
C2477       C  0.74401935  0.21579159  0.03769775     0.27400
C2478       C  0.78946819  0.25554165  0.03602508     0.27400
C2479       C  0.68819402  0.20049032  0.98599843     0.36000
C2480       C  0.69692262  0.19837846  0.01808364     0.36000
C2481       C  0.80564545  0.30661355  0.98166696     0.36000
C2482       C  0.81528267  0.29920637  0.01248673     0.36000
C2483       C  0.71294113  0.25757792  0.94738016    -0.21500
C2484       C  0.74004638  0.28399492  0.94654948    -0.21500
C2485       C  0.76269524  0.21022219  0.05031603    -0.21500
C2486       C  0.79114729  0.23547410  0.04955156    -0.21500
C2487       C  0.66033352  0.18833905  0.99601924    -0.22500
C2488       C  0.66579764  0.18636200  0.01627647    -0.22500
C2489       C  0.83267194  0.33214240  0.98705976    -0.22500
C2490       C  0.83851377  0.32763956  0.00668497    -0.22500
C2491       C  0.69334256  0.20811160  0.96502890    -0.17900
C2492       C  0.78948491  0.30438129  0.96375018    -0.17900
C2493       C  0.81424596  0.28443272  0.03094736    -0.17900
C2494       C  0.71201216  0.19675355  0.03566673    -0.17900
H2495       H  0.69234535  0.25377400  0.93988600     0.15000
H2496       H  0.74430936  0.30385010  0.93780813     0.15000
H2497       H  0.75667844  0.19005130  0.05915713     0.15000
H2498       H  0.81099021  0.23843031  0.05769564     0.15000
H2499       H  0.63849226  0.18281172  0.98967749     0.13300
H2500       H  0.64888699  0.17724823  0.02833035     0.13300
H2501       H  0.84620173  0.35244645  0.97806359     0.13300
H2502       H  0.85778289  0.34347216  0.01558792     0.13300
H2503       H  0.75465189  0.24333824  0.97799488     0.26600
H2504       H  0.75211551  0.25418832  0.01961099     0.26600
C2505       C  0.51576745  0.25061252  0.41752218    -0.02100
C2506       C  0.75378226  0.26239694  0.41766589    -0.02100
C2507       C  0.74077445  0.48273001  0.41938394    -0.02100
O2508       O  0.61397859  0.28068810  0.52342125    -0.81400
C2509       C  0.69356699  0.38547311  0.48183956     0.98000
O2510       O  0.66512330  0.36914212  0.48461239    -0.70500
O2511       O  0.61259238  0.31870005  0.49205379    -0.74100
Al2512     Al  0.64551251  0.34697504  0.50885374     1.49000
C2513       C  0.60963609  0.29725109  0.48096233     0.93200
O2514       O  0.67756390  0.28577668  0.48941971    -0.80300
O2515       O  0.71262684  0.32076363  0.52629822    -0.73900
Al2516     Al  0.64817652  0.28754381  0.50680903     1.90100
O2517       O  0.71414821  0.33286806  0.48574200    -0.72900
O2518       O  0.70820113  0.36961859  0.53455289    -0.72800
O2519       O  0.71199155  0.38237654  0.49321125    -0.78400
O2520       O  0.67325348  0.38066014  0.52552843    -0.76600
O2521       O  0.66729429  0.32788422  0.50870331    -1.12800
O2522       O  0.62287638  0.32583190  0.53280258    -0.72000
C2523       C  0.60658578  0.29711495  0.53366927     0.98800
C2524       C  0.70155026  0.30543686  0.48063318     0.95100
Al2525     Al  0.70804001  0.34945514  0.50996226     1.55600
O2526       O  0.62763881  0.28704314  0.48282516    -0.76600
C2527       C  0.69649772  0.38643354  0.53588814     0.99300
C2528       C  0.69462534  0.29523198  0.53415111     0.94200
O2529       O  0.66650663  0.28218169  0.53040707    -0.81900
C2530       C  0.65728163  0.07123552  0.23985354    -0.02100
C2531       C  0.92301228  0.34521162  0.24292562    -0.02100
C2532       C  0.92935656  0.07658755  0.24154425    -0.02100
O2533       O  0.50360773  0.03932075  0.12668835    -0.81400
C2534       C  0.97741976  0.43929156  0.17903947     0.98000
O2535       O  0.95904651  0.44354696  0.16857429    -0.70500
O2536       O  0.96094708  0.49484671  0.17758843    -0.74100
Al2537     Al  0.96320080  0.47660195  0.15258252     1.49000
C2538       C  0.97428620  0.02235189  0.18047465     0.93200
O2539       O  0.54476708  0.03935680  0.17520331    -0.80300
O2540       O  0.54743794  0.49712352  0.12626353    -0.73900
Al2541     Al  0.52336819  0.03715919  0.15094768     1.90100
O2542       O  0.55823323  0.00588084  0.16680915    -0.72900
O2543       O  0.99625527  0.44466865  0.13450522    -0.72800
O2544       O  0.50587804  0.45330642  0.17487636    -0.78400
O2545       O  0.96017678  0.45557704  0.12792118    -0.76600
O2546       O  0.50356157  0.49572687  0.15152237    -1.12800
O2547       O  0.95783829  0.00459235  0.13721331    -0.72000
C2548       C  0.97511584  0.02797417  0.12684913     0.98800
C2549       C  0.56113968  0.02732659  0.17800372     0.95100
Al2550     Al  0.52471103  0.47613765  0.15057439     1.55600
O2551       O  0.99529017  0.04059770  0.16875724    -0.76600
C2552       C  0.97221062  0.43921287  0.12526741     0.99300
C2553       C  0.56456664  0.02702027  0.12442876     0.94200
O2554       O  0.55699256  0.04321998  0.13464037    -0.81900
N2555       N  0.60346835  0.18299367  0.35694913    -0.36200
N2556       N  0.55725154  0.17101674  0.32588400    -0.56700
N2557       N  0.59263459  0.15769721  0.29658910    -0.36200
N2558       N  0.63890209  0.17014797  0.32760396    -0.56700
C2559       C  0.58622590  0.19247542  0.36698611     0.27400
C2560       C  0.62917430  0.19178684  0.36796259     0.27400
C2561       C  0.56586676  0.14659616  0.28651227     0.27400
C2562       C  0.60878792  0.14623674  0.28740355     0.27400
C2563       C  0.54563836  0.18061816  0.34077450     0.36000
C2564       C  0.53819216  0.16368763  0.30990186     0.36000
C2565       C  0.65838685  0.17793927  0.34335835     0.36000
C2566       C  0.65176432  0.16309896  0.31205943     0.36000
C2567       C  0.60034714  0.20571012  0.38514901    -0.21500
C2568       C  0.62741478  0.20583567  0.38554075    -0.21500
C2569       C  0.56601961  0.12956603  0.27012994    -0.21500
C2570       C  0.59248552  0.12873935  0.27097121    -0.21500
C2571       C  0.51923799  0.17975954  0.33406293    -0.22500
C2572       C  0.51431377  0.16864517  0.31465465    -0.22500
C2573       C  0.68353018  0.17540930  0.33776263    -0.22500
C2574       C  0.67972188  0.16684848  0.31786067    -0.22500
C2575       C  0.55889309  0.19117652  0.36008850    -0.17900
C2576       C  0.65498095  0.18904827  0.36236896    -0.17900
C2577       C  0.63744401  0.15014210  0.29345967    -0.17900
C2578       C  0.54049978  0.15006717  0.29178945    -0.17900
H2579       H  0.59257979  0.21525020  0.39683898     0.15000
H2580       H  0.64404664  0.21592799  0.39741041     0.15000
H2581       H  0.54854236  0.11802816  0.25885938     0.15000
H2582       H  0.59833359  0.11579999  0.26075115     0.15000
H2583       H  0.50482276  0.18629674  0.34224794     0.13300
H2584       H  0.99424988  0.16562914  0.30484932     0.13300
H2585       H  0.70282518  0.17940074  0.34697813     0.13300
H2586       H  0.69535850  0.16282949  0.30890336     0.13300
H2587       H  0.59765012  0.17068405  0.34363071     0.26600
H2588       H  0.59997821  0.17312552  0.30841696     0.26600
N2589       N  0.83005162  0.41793977  0.36065397    -0.36200
N2590       N  0.84205089  0.38535356  0.32977488    -0.56700
N2591       N  0.84839070  0.43164353  0.30004051    -0.36200
N2592       N  0.83847479  0.46521452  0.33229528    -0.56700
C2593       C  0.83134529  0.39657868  0.37223087     0.27400
C2594       C  0.82902683  0.43811819  0.37343065     0.27400
C2595       C  0.86050408  0.41717423  0.28954108     0.27400
C2596       C  0.85883122  0.45927272  0.29113819     0.27400
C2597       C  0.83126555  0.36363768  0.34445001     0.36000
C2598       C  0.84400585  0.37217319  0.31247702     0.36000
C2599       C  0.82555255  0.47230046  0.34776481     0.36000
C2600       C  0.83843002  0.48146648  0.31601563     0.36000
C2601       C  0.83189379  0.40367813  0.39262199    -0.21500
C2602       C  0.83037804  0.42992554  0.39337852    -0.21500
C2603       C  0.87746354  0.43530859  0.27325150    -0.21500
C2604       C  0.87715531  0.46195118  0.27463426    -0.21500
C2605       C  0.82656758  0.33647243  0.33650022    -0.22500
C2606       C  0.83519437  0.34201066  0.31632344    -0.22500
C2607       C  0.81766782  0.49353999  0.34136957    -0.22500
C2608       C  0.82618896  0.49961997  0.32123970    -0.22500
C2609       C  0.82672167  0.36848152  0.36505641    -0.17900
C2610       C  0.82148326  0.46031297  0.36767902    -0.17900
C2611       C  0.85182002  0.48198979  0.29706953    -0.17900
C2612       C  0.85668860  0.38802057  0.29400368    -0.17900
H2613       H  0.83165548  0.39037845  0.40560929     0.15000
H2614       H  0.82873518  0.44082467  0.40705188     0.15000
H2615       H  0.88929700  0.43033427  0.26149104     0.15000
H2616       H  0.88939287  0.48111019  0.26453421     0.15000
H2617       H  0.81853778  0.31514752  0.34451453     0.13300
H2618       H  0.83502493  0.32564258  0.30579847     0.13300
H2619       H  0.80732402  0.50389381  0.35034098     0.13300
H2620       H  0.82305740  0.01351436  0.30926040     0.13300
H2621       H  0.82414014  0.41569202  0.34542175     0.26600
H2622       H  0.83227180  0.42235725  0.31165181     0.26600
N2623       N  0.59797994  0.40301835  0.35531077    -0.36200
N2624       N  0.62774513  0.45025367  0.32575205    -0.56700
N2625       N  0.57712467  0.41463506  0.29800248    -0.36200
N2626       N  0.54831932  0.36700648  0.32690984    -0.56700
C2627       C  0.62659580  0.41899527  0.36258376     0.27400
C2628       C  0.58626808  0.37426579  0.36223470     0.27400
C2629       C  0.59728785  0.43652171  0.28538142     0.27400
C2630       C  0.55395843  0.39396243  0.28649623     0.27400
C2631       C  0.64366781  0.46522919  0.34235462     0.36000
C2632       C  0.63326730  0.47143102  0.31141369     0.36000
C2633       C  0.53705780  0.35280263  0.34486251     0.36000
C2634       C  0.52416832  0.35910711  0.31469609     0.36000
C2635       C  0.63352650  0.40012429  0.37384118    -0.21500
C2636       C  0.60809849  0.37170609  0.37345575    -0.21500
C2637       C  0.58722975  0.42952873  0.26552998    -0.21500
C2638       C  0.55972963  0.40311866  0.26624315    -0.21500
C2639       C  0.65963184  0.49614371  0.33857583    -0.22500
C2640       C  0.65302617  0.50011914  0.31888281    -0.22500
C2641       C  0.50561306  0.33609320  0.34424313    -0.22500
C2642       C  0.49752828  0.33890770  0.32490194    -0.22500
C2643       C  0.64570576  0.45052016  0.36000590    -0.17900
C2644       C  0.55527617  0.35176904  0.36060649    -0.17900
C2645       C  0.52637952  0.36953495  0.29437650    -0.17900
C2646       C  0.62141640  0.46498565  0.29151951    -0.17900
H2647       H  0.65468421  0.40620816  0.38146125     0.15000
H2648       H  0.60570095  0.35164362  0.38100900     0.15000
H2649       H  0.59760825  0.44315094  0.25202687     0.15000
H2650       H  0.54535751  0.39316210  0.25321766     0.15000
H2651       H  0.67467923  0.51383354  0.34881352     0.13300
H2652       H  0.65719674  0.02229076  0.31289456     0.13300
H2653       H  0.49008962  0.32216368  0.35617633     0.13300
H2654       H  0.97437657  0.32797679  0.31916106     0.13300
H2655       H  0.58579672  0.41211469  0.34830703     0.26600
H2656       H  0.57678447  0.41657054  0.31369472     0.26600
C2657       C  0.84665461  0.42030727  0.75455263    -0.02100
C2658       C  0.58266108  0.15264773  0.75108428    -0.02100
C2659       C  0.57576225  0.41424979  0.75416098    -0.02100
O2660       O  0.54594294  0.49588527  0.86712942    -0.81400
C2661       C  0.94623275  0.47101721  0.81404595     0.98000
O2662       O  0.95105678  0.45227959  0.82368162    -0.70500
O2663       O  0.50127001  0.45116675  0.82024112    -0.74100
Al2664     Al  0.98205003  0.45538445  0.84160949     1.49000
C2665       C  0.52949488  0.46398002  0.81681106     0.93200
O2666       O  0.54702182  0.03832164  0.81749994    -0.80300
O2667       O  0.50362127  0.04167415  0.86579217    -0.73900
Al2668     Al  0.54410570  0.01668979  0.84200439     1.90100
O2669       O  0.51212024  0.05038322  0.82444142    -0.72900
O2670       O  0.95145612  0.49097319  0.85862746    -0.72800
O2671       O  0.96097455  0.49895576  0.81800086    -0.78400
O2672       O  0.95834420  0.45258089  0.86522769    -0.76600
O2673       O  0.50268871  0.49643526  0.84297522    -1.12800
O2674       O  0.50814167  0.45024422  0.86115008    -0.72000
C2675       C  0.53270290  0.46751348  0.87018906     0.98800
C2676       C  0.53471403  0.05422078  0.81396942     0.95100
Al2677     Al  0.98642481  0.01977583  0.84125801     1.55600
O2678       O  0.54772006  0.48753459  0.82622271    -0.76600
C2679       C  0.94366363  0.46641556  0.86788543     0.99300
C2680       C  0.53219029  0.05715642  0.86786487     0.94200
O2681       O  0.54933041  0.04997262  0.85826103    -0.81900
C2682       C  0.75767170  0.00649403  0.57594912    -0.02100
C2683       C  0.98704799  0.24102263  0.57466268    -0.02100
C2684       C  0.75231966  0.23284025  0.57353484    -0.02100
O2685       O  0.87883275  0.16150440  0.46111530    -0.81400
C2686       C  0.80286546  0.19022832  0.51018879     0.98000
O2687       O  0.82580986  0.20849434  0.49969160    -0.70500
O2688       O  0.87782309  0.20840364  0.50693506    -0.74100
Al2689     Al  0.85464479  0.20363262  0.48294873     1.49000
C2690       C  0.89269031  0.19511728  0.51103870     0.93200
O2691       O  0.83586210  0.12093162  0.50957614    -0.80300
O2692       O  0.79071434  0.11967417  0.46126065    -0.73900
Al2693     Al  0.85540157  0.14258526  0.48504772     1.90100
O2694       O  0.78934386  0.10939040  0.50237979    -0.72900
O2695       O  0.78856968  0.17057006  0.46816670    -0.72800
O2696       O  0.79227243  0.16201503  0.50863859    -0.78400
O2697       O  0.83451622  0.20486991  0.45862044    -0.76600
O2698       O  0.83482385  0.16284922  0.48421885    -1.12800
O2699       O  0.88751728  0.20775112  0.46618923    -0.72000
C2700       C  0.89430247  0.18966650  0.45764321     0.98800
C2701       C  0.80765315  0.10513252  0.51303795     0.95100
Al2702     Al  0.79402604  0.14229075  0.48493218     1.55600
O2703       O  0.88722231  0.17107200  0.50198536    -0.76600
C2704       C  0.80603713  0.19386865  0.45771767     0.99300
C2705       C  0.80303422  0.10352379  0.45882831     0.94200
O2706       O  0.82719891  0.10943534  0.46818487    -0.81900
N2707       N  0.89710295  0.29505139  0.64256770    -0.36200
N2708       N  0.94535451  0.31288659  0.67131066    -0.56700
N2709       N  0.91284504  0.33298272  0.69856151    -0.36200
N2710       N  0.86450139  0.31525832  0.66870498    -0.56700
C2711       C  0.91136228  0.27989777  0.63632470     0.27400
C2712       C  0.86804649  0.27914640  0.63595595     0.27400
C2713       C  0.94050524  0.34564197  0.70774134     0.27400
C2714       C  0.89780705  0.34671297  0.70632996     0.27400
C2715       C  0.95847224  0.30594800  0.65576107     0.36000
C2716       C  0.96575910  0.32318958  0.68656601     0.36000
C2717       C  0.84744755  0.30908436  0.65174043     0.36000
C2718       C  0.85523813  0.32989135  0.68143475     0.36000
C2719       C  0.89101748  0.25361551  0.62641552    -0.21500
C2720       C  0.86354925  0.25294313  0.62638332    -0.21500
C2721       C  0.94267073  0.36726245  0.72147523    -0.21500
C2722       C  0.91595507  0.36772348  0.72067376    -0.21500
C2723       C  0.98758418  0.31272178  0.66112085    -0.22500
C2724       C  0.99088929  0.32061473  0.68106455    -0.22500
C2725       C  0.82828730  0.32116302  0.65335608    -0.22500
C2726       C  0.83182685  0.33257690  0.67257198    -0.22500
C2727       C  0.94287174  0.29047991  0.63799207    -0.17900
C2728       C  0.84681108  0.28966137  0.63617203    -0.17900
C2729       C  0.86923207  0.34307421  0.70012232    -0.17900
C2730       C  0.96474360  0.33966711  0.70367871    -0.17900
H2731       H  0.89568911  0.23694226  0.61965207     0.15000
H2732       H  0.84282898  0.23561051  0.61948035     0.15000
H2733       H  0.96202232  0.38243951  0.73055211     0.15000
H2734       H  0.91137633  0.38340210  0.72880164     0.15000
H2735       H  0.50690339  0.31222476  0.65218580     0.13300
H2736       H  0.51259528  0.32687102  0.68972078     0.13300
H2737       H  0.81271251  0.32124539  0.64218478     0.13300
H2738       H  0.81909701  0.34259241  0.67883835     0.13300
H2739       H  0.90767696  0.31698187  0.64841605     0.26600
H2740       H  0.90429364  0.31518986  0.68830472     0.26600
N2741       N  0.67932792  0.08100368  0.63599766    -0.36200
N2742       N  0.66523507  0.03380179  0.66484570    -0.56700
N2743       N  0.65998323  0.07235301  0.69676663    -0.36200
N2744       N  0.67172897  0.11821338  0.66615002    -0.56700
C2745       C  0.67703703  0.05887577  0.62356875     0.27400
C2746       C  0.67921816  0.10265406  0.62410365     0.27400
C2747       C  0.64701844  0.04499328  0.70627814     0.27400
C2748       C  0.65096323  0.08990756  0.70688794     0.27400
C2749       C  0.67562252  0.02319938  0.64971701     0.36000
C2750       C  0.66147043  0.01654917  0.68145406     0.36000
C2751       C  0.68435419  0.13896873  0.65107396     0.36000
C2752       C  0.67217197  0.13357597  0.68292619     0.36000
C2753       C  0.67489238  0.06624582  0.60356251    -0.21500
C2754       C  0.67610520  0.09388381  0.60389801    -0.21500
C2755       C  0.63119278  0.04601692  0.72335513    -0.21500
C2756       C  0.63329792  0.07400698  0.72353424    -0.21500
C2757       C  0.67821780  0.99884140  0.65665786    -0.22500
C2758       C  0.66850816  0.99411672  0.67660907    -0.22500
C2759       C  0.69286972  0.16769081  0.65832967    -0.22500
C2760       C  0.68466644  0.16415244  0.67849570    -0.22500
C2761       C  0.68157852  0.03474239  0.62958145    -0.17900
C2762       C  0.68683390  0.13196416  0.63067987    -0.17900
C2763       C  0.65791430  0.11978059  0.70144222    -0.17900
C2764       C  0.64896707  0.01903414  0.70020065    -0.17900
H2765       H  0.67393089  0.05361521  0.59010574     0.15000
H2766       H  0.67635921  0.10684527  0.59070362     0.15000
H2767       H  0.61903971  0.02841255  0.73461559     0.15000
H2768       H  0.62276930  0.08158550  0.73466861     0.15000
H2769       H  0.68545683  0.98532574  0.64814032     0.13300
H2770       H  0.66857739  0.47619636  0.68538059     0.13300
H2771       H  0.70330567  0.18891110  0.64995973     0.13300
H2772       H  0.68727717  0.18191624  0.68871948     0.13300
H2773       H  0.68641717  0.08391598  0.65101320     0.26600
H2774       H  0.67524711  0.07898734  0.68466770     0.26600
N2775       N  0.92421862  0.07417485  0.69522740    -0.36200
N2776       N  0.95556965  0.12111648  0.66524529    -0.56700
N2777       N  0.90744226  0.08420751  0.63591089    -0.36200
N2778       N  0.87455116  0.03853006  0.66736080    -0.56700
C2779       C  0.94684190  0.09540475  0.70665067     0.27400
C2780       C  0.90334282  0.05347437  0.70814997     0.27400
C2781       C  0.92189988  0.11111545  0.62576404     0.27400
C2782       C  0.88049451  0.06654848  0.62644830     0.27400
C2783       C  0.97807790  0.13116230  0.67921933     0.36000
C2784       C  0.96710707  0.13928694  0.64868980     0.36000
C2785       C  0.86694457  0.01802295  0.68263510     0.36000
C2786       C  0.85790843  0.02319874  0.65105619     0.36000
C2787       C  0.94008066  0.08842681  0.72709252    -0.21500
C2788       C  0.91252666  0.06200362  0.72805126    -0.21500
C2789       C  0.90442268  0.10968219  0.60907552    -0.21500
C2790       C  0.87829051  0.08210398  0.60976938    -0.21500
C2791       C  0.00402466  0.15604646  0.67159024    -0.22500
C2792       C  0.99686177  0.16170514  0.65252734    -0.22500
C2793       C  0.84507547  0.98956035  0.67607253    -0.22500
C2794       C  0.83917366  0.99290740  0.65610194    -0.22500
C2795       C  0.97489326  0.11897781  0.69909273    -0.17900
C2796       C  0.87912260  0.02481125  0.70250261    -0.17900
C2797       C  0.85782361  0.03663067  0.63214190    -0.17900
C2798       C  0.95055075  0.13691976  0.63072387    -0.17900
H2799       H  0.95405972  0.10061229  0.73993468     0.15000
H2800       H  0.90123759  0.04963454  0.74180023     0.15000
H2801       H  0.90964664  0.12661366  0.59736658     0.15000
H2802       H  0.85979543  0.07459762  0.59907235     0.15000
H2803       H  0.52482292  0.16974088  0.67993438     0.13300
H2804       H  0.51092514  0.18107486  0.64383732     0.13300
H2805       H  0.83672751  0.46911532  0.68259670     0.13300
H2806       H  0.82299677  0.97511421  0.64637508     0.13300
H2807       H  0.92564835  0.07108934  0.67973031     0.26600
H2808       H  0.91635497  0.07751337  0.64776651     0.26600
C2809       C  0.78271417  0.24216804  0.54006397    -0.20900
C2810       C  0.76117185  0.22135273  0.55407986    -0.08900
C2811       C  0.74751501  0.19018438  0.54885247     0.29900
C2812       C  0.76131695  0.18055287  0.53466394    -0.20900
C2813       C  0.78736286  0.20151569  0.52391647    -0.08900
C2814       C  0.79659322  0.23254275  0.52562333     0.29900
F2815       F  0.81959882  0.25366980  0.51394249    -0.19500
H2816       H  0.79127660  0.26624997  0.54181753     0.18300
H2817       H  0.75141543  0.15642799  0.53213224     0.18300
F2818       F  0.72047242  0.16873844  0.55685775    -0.19400
C2819       C  0.77195526  0.25985458  0.60721190    -0.20900
C2820       C  0.77953425  0.25308514  0.58786689    -0.08900
C2821       C  0.81060292  0.26154970  0.58468939     0.29900
C2822       C  0.83222009  0.27709894  0.59963651    -0.20900
C2823       C  0.82346627  0.27927622  0.61956293    -0.08900
C2824       C  0.79250397  0.26930510  0.62326851     0.29900
F2825       F  0.78132498  0.26629553  0.64246214    -0.19500
H2826       H  0.74870065  0.25390883  0.61068549     0.18300
H2827       H  0.85587406  0.28459350  0.59613387     0.18300
F2828       F  0.82081370  0.25298266  0.56844479    -0.19400
C2829       C  0.74540406  0.18809501  0.59459429    -0.20900
C2830       C  0.73218954  0.20543257  0.58775579    -0.08900
C2831       C  0.70370615  0.19879252  0.59642810     0.29900
C2832       C  0.68847166  0.17427002  0.60986985    -0.20900
C2833       C  0.70175602  0.15696884  0.61575618    -0.08900
C2834       C  0.73042098  0.16419658  0.60816297     0.29900
F2835       F  0.74421607  0.14838159  0.61421705    -0.19500
H2836       H  0.76781141  0.19331611  0.58927677     0.18300
H2837       H  0.66675570  0.16942245  0.61632581     0.18300
F2838       F  0.69155248  0.21705435  0.59370817    -0.19400
C2839       C  0.94232895  0.19760881  0.55443546    -0.20900
C2840       C  0.96352384  0.22899927  0.55670612    -0.08900
C2841       C  0.96289605  0.24863936  0.54151571     0.29900
C2842       C  0.93918857  0.23801573  0.52719472    -0.20900
C2843       C  0.91685503  0.20719341  0.52663539    -0.08900
C2844       C  0.91927800  0.18707352  0.54004290     0.29900
F2845       F  0.89888208  0.15692689  0.53950270    -0.19500
H2846       H  0.94295531  0.18033568  0.56369168     0.18300
H2847       H  0.93866872  0.25375055  0.51624347     0.18300
F2848       F  0.98454790  0.27842167  0.54100760    -0.19400
C2849       C  0.96154753  0.27337705  0.58515010    -0.20900
C2850       C  0.98231595  0.26292680  0.58906427    -0.08900
C2851       C  0.99395205  0.26714845  0.60912024     0.29900
C2852       C  0.97910440  0.27276991  0.62500107    -0.20900
C2853       C  0.95832230  0.28290986  0.62115666    -0.08900
C2854       C  0.95138891  0.28499410  0.60067908     0.29900
F2855       F  0.93296589  0.29638344  0.59570952    -0.19500
H2856       H  0.95184214  0.27203309  0.57046369     0.18300
H2857       H  0.98325740  0.26781748  0.64025530     0.18300
F2858       F  0.01613721  0.26054917  0.61391461    -0.19400
C2859       C  0.95217153  0.20081528  0.60030034    -0.20900
C2860       C  0.97992482  0.21333251  0.58906281    -0.08900
C2861       C  0.99915730  0.20087673  0.59303263     0.29900
C2862       C  0.98929121  0.17555371  0.60601349    -0.20900
C2863       C  0.96196093  0.16417124  0.61713580    -0.08900
C2864       C  0.94439407  0.17826457  0.61485509     0.29900
F2865       F  0.91869547  0.16916223  0.62613643    -0.19500
H2866       H  0.93660583  0.20944330  0.59817848     0.18300
H2867       H  0.00346198  0.16525402  0.60778650     0.18300
F2868       F  0.52608824  0.21127278  0.58460375    -0.19400
C2869       C  0.76429752  0.06037658  0.53099591    -0.20900
C2870       C  0.79567814  0.08096601  0.52932862    -0.08900
C2871       C  0.81504125  0.07797922  0.54334292     0.29900
C2872       C  0.80337321  0.05473640  0.55814954    -0.20900
C2873       C  0.77193568  0.03276308  0.55934098    -0.08900
C2874       C  0.75258656  0.03714220  0.54575624     0.29900
F2875       F  0.72196792  0.01831835  0.54647355    -0.19500
H2876       H  0.74853593  0.06209970  0.52071880     0.18300
H2877       H  0.81946990  0.05517941  0.56897510     0.18300
F2878       F  0.84540007  0.09796274  0.54315188    -0.19400
C2879       C  0.77847467  0.00931349  0.61273613    -0.20900
C2880       C  0.78188668  0.00748397  0.59138317    -0.08900
C2881       C  0.80797615  0.00614455  0.58498419     0.29900
C2882       C  0.83224492  0.01360566  0.59850722    -0.20900
C2883       C  0.83025293  0.02076474  0.61892791    -0.08900
C2884       C  0.80237511  0.01663060  0.62611045     0.29900
F2885       F  0.79884449  0.02182577  0.64591045    -0.19500
H2886       H  0.75764242  0.00629523  0.61948480     0.18300
H2887       H  0.85326827  0.01559616  0.59277102     0.18300
F2888       F  0.81128181  0.49980362  0.56475821    -0.19400
C2889       C  0.70407115  0.99131584  0.59212050    -0.20900
C2890       C  0.73495284  0.01309325  0.58809676    -0.08900
C2891       C  0.74628869  0.04213938  0.59700861     0.29900
C2892       C  0.72849763  0.04823017  0.61018153    -0.20900
C2893       C  0.69870913  0.02607523  0.61508590    -0.08900
C2894       C  0.68628472  0.99759233  0.60571645     0.29900
F2895       F  0.65675951  0.47658085  0.60754861    -0.19500
H2896       H  0.69334470  0.47026101  0.58300636     0.18300
H2897       H  0.73838370  0.07046134  0.61704331     0.18300
F2898       F  0.77562008  0.06432749  0.59417000    -0.19400
C2899       C  0.53696945  0.42212056  0.80348421    -0.20900
C2900       C  0.54186402  0.45168681  0.80163888    -0.08900
C2901       C  0.56103060  0.47048724  0.78619353     0.29900
C2902       C  0.57309560  0.45919290  0.77183239    -0.20900
C2903       C  0.56575333  0.42825702  0.77190170    -0.08900
C2904       C  0.54971982  0.41090803  0.78932561     0.29900
F2905       F  0.54593286  0.38282061  0.79262681    -0.19500
H2906       H  0.52383130  0.40792348  0.81619332     0.18300
H2907       H  0.58823558  0.47551957  0.76080734     0.18300
F2908       F  0.56772211  0.49985172  0.78472934    -0.19400
C2909       C  0.51750139  0.37470661  0.74972077    -0.20900
C2910       C  0.54751909  0.39089210  0.74165916    -0.08900
C2911       C  0.55077164  0.38681341  0.72062754     0.29900
C2912       C  0.52561270  0.37506691  0.70796197    -0.20900
C2913       C  0.99290360  0.35565203  0.71638499    -0.08900
C2914       C  0.99182864  0.35278706  0.73765505     0.29900
F2915       F  0.96524333  0.33387015  0.74737080    -0.19500
H2916       H  0.51241777  0.37457748  0.76553890     0.18300
H2917       H  0.52959505  0.37785230  0.69171168     0.18300
F2918       F  0.57851199  0.39655172  0.71188093    -0.19400
C2919       C  0.62833113  0.45236619  0.73648213    -0.20900
C2920       C  0.59648979  0.44050898  0.73891708    -0.08900
C2921       C  0.58274671  0.45314860  0.72625725     0.29900
C2922       C  0.60026428  0.97788936  0.71362220    -0.20900
C2923       C  0.63187031  0.99104367  0.71267587    -0.08900
C2924       C  0.64572195  0.47735312  0.72362491     0.29900
F2925       F  0.67652401  0.49023968  0.72345047    -0.19500
H2926       H  0.64045305  0.44330964  0.74468156     0.18300
H2927       H  0.58884930  0.98726870  0.70472744     0.18300
F2928       F  0.55263529  0.44410481  0.72791452    -0.19400
C2929       C  0.58390141  0.10774996  0.77149675    -0.20900
C2930       C  0.57051414  0.12629357  0.76785407    -0.08900
C2931       C  0.54245874  0.11692802  0.77849350     0.29900
C2932       C  0.53160532  0.09412303  0.79338475    -0.20900
C2933       C  0.54679220  0.07807054  0.79779111    -0.08900
C2934       C  0.57283567  0.08480072  0.78635420     0.29900
F2935       F  0.58756173  0.06884058  0.78914454    -0.19500
H2936       H  0.60234189  0.10908873  0.76271355     0.18300
H2937       H  0.51045985  0.08844178  0.80112267     0.18300
F2938       F  0.52346377  0.12760442  0.77345010    -0.19400
C2939       C  0.53682793  0.11578469  0.73029637    -0.20900
C2940       C  0.55407014  0.14555474  0.73807330    -0.08900
C2941       C  0.54441154  0.16663176  0.73279695     0.29900
C2942       C  0.51858886  0.15777126  0.72048911    -0.20900
C2943       C  0.00226166  0.12892586  0.71222180    -0.08900
C2944       C  0.51167692  0.10734324  0.71788612     0.29900
F2945       F  0.99667773  0.07939858  0.70950590    -0.19500
H2946       H  0.54350508  0.09896019  0.73349600     0.18300
H2947       H  0.51154249  0.17416954  0.71679991     0.18300
F2948       F  0.56010717  0.19597823  0.73868664    -0.19400
C2949       C  0.62065697  0.13790997  0.70404515    -0.20900
C2950       C  0.64374253  0.13468724  0.71324905    -0.08900
C2951       C  0.65197185  0.14492391  0.73324347     0.29900
C2952       C  0.63432102  0.15412944  0.74455121    -0.20900
C2953       C  0.60695349  0.15130069  0.73661203    -0.08900
C2954       C  0.60339968  0.14734927  0.71514643     0.29900
F2955       F  0.58398387  0.15308183  0.70436091    -0.19500
H2956       H  0.61554067  0.13251167  0.68811106     0.18300
H2957       H  0.64027989  0.16057845  0.76026420     0.18300
F2958       F  0.67612330  0.14479590  0.74204855    -0.19400
C2959       C  0.87613911  0.45495296  0.78400080    -0.20900
C2960       C  0.87343070  0.43245001  0.77012239    -0.08900
C2961       C  0.89718067  0.42517767  0.77016487     0.29900
C2962       C  0.92050875  0.43776808  0.78451709    -0.20900
C2963       C  0.92238915  0.45949129  0.79831181    -0.08900
C2964       C  0.90042656  0.46862247  0.79760636     0.29900
F2965       F  0.90184842  0.49003938  0.81052601    -0.19500
H2966       H  0.85921216  0.46210527  0.78414784     0.18300
H2967       H  0.93782950  0.43112009  0.78447105     0.18300
F2968       F  0.89963616  0.40758594  0.75584836    -0.19400
C2969       C  0.88309804  0.46368759  0.73172124    -0.20900
C2970       C  0.85475191  0.44982637  0.74227106    -0.08900
C2971       C  0.83700664  0.46434633  0.74086815     0.29900
C2972       C  0.84298617  0.98666850  0.72832758    -0.20900
C2973       C  0.87042254  0.99960464  0.71726741    -0.08900
C2974       C  0.89125870  0.48757628  0.71822801     0.29900
F2975       F  0.91778770  0.49858945  0.70759216    -0.19500
H2976       H  0.89830346  0.45449072  0.73297181     0.18300
H2977       H  0.82761846  0.99559322  0.72655800     0.18300
F2978       F  0.81274863  0.45675082  0.75321994    -0.19400
C2979       C  0.84752892  0.40061090  0.71812893    -0.20900
C2980       C  0.84551113  0.39594142  0.73950254    -0.08900
C2981       C  0.84254288  0.36811717  0.74644455     0.29900
C2982       C  0.84789933  0.34966833  0.73315196    -0.20900
C2983       C  0.85611563  0.35833921  0.71273468    -0.08900
C2984       C  0.85524018  0.38378205  0.70528700     0.29900
F2985       F  0.86364221  0.39365029  0.68584340    -0.19500
H2986       H  0.84535668  0.41867895  0.71107237     0.18300
H2987       H  0.84790282  0.32976650  0.73914681     0.18300
F2988       F  0.83772831  0.36025416  0.76640070    -0.19400
C2989       C  0.93091912  0.02953728  0.22606609    -0.20900
C2990       C  0.94074350  0.06099712  0.22600313    -0.08900
C2991       C  0.96382753  0.07925412  0.21174739     0.29900
C2992       C  0.97453011  0.06643724  0.19744181    -0.20900
C2993       C  0.96325008  0.03498550  0.19680919    -0.08900
C2994       C  0.94165207  0.01666926  0.21159911     0.29900
F2995       F  0.93109666  0.98634352  0.21232350    -0.19500
H2996       H  0.91535670  0.01453649  0.23747052     0.18300
H2997       H  0.99157256  0.08143306  0.18655845     0.18300
F2998       F  0.97553726  0.10976400  0.21119195    -0.19400
C2999       C  0.97431036  0.12869629  0.25396877    -0.20900
C3000       C  0.95838269  0.09658723  0.25427714    -0.08900
C3001       C  0.96999843  0.08194328  0.26686099     0.29900
C3002       C  0.99341117  0.09834082  0.28040103    -0.20900
C3003       C  0.51263293  0.13327582  0.27921789    -0.08900
C3004       C  0.50278473  0.14788422  0.26553897     0.29900
F3005       F  0.51782064  0.17860099  0.26409310    -0.19500
H3006       H  0.96812028  0.14126126  0.24359387     0.18300
H3007       H  0.00079576  0.08625164  0.29040768     0.18300
F3008       F  0.95748380  0.05130753  0.26689636    -0.19400
C3009       C  0.90501249  0.05835250  0.27741866    -0.20900
C3010       C  0.90328782  0.05409743  0.25606528    -0.08900
C3011       C  0.87630716  0.02912282  0.24864793     0.29900
C3012       C  0.85678230  0.50809993  0.26335054    -0.20900
C3013       C  0.86385792  0.50986673  0.28413689    -0.08900
C3014       C  0.88627516  0.03486992  0.29060175     0.29900
F3015       F  0.89260176  0.03800678  0.31078270    -0.19500
H3016       H  0.92227170  0.07907989  0.28424929     0.18300
H3017       H  0.83792940  0.48757323  0.25734009     0.18300
F3018       F  0.87050601  0.02574252  0.22842194    -0.19400
C3019       C  0.97029806  0.39189487  0.22601471    -0.20900
C3020       C  0.93881585  0.37018110  0.22614564    -0.08900
C3021       C  0.92066239  0.37279792  0.21080072     0.29900
C3022       C  0.93356317  0.39495163  0.19565873    -0.20900
C3023       C  0.96491778  0.41573727  0.19526301    -0.08900
C3024       C  0.98321542  0.41411008  0.21068690     0.29900
F3025       F  0.01344406  0.43452882  0.21137666    -0.19500
H3026       H  0.98518079  0.39263596  0.23798189     0.18300
H3027       H  0.91873163  0.39571684  0.18411539     0.18300
F3028       F  0.89015936  0.35347267  0.21027616    -0.19400
C3029       C  0.97394755  0.36047079  0.28957691    -0.20900
C3030       C  0.49804629  0.35730327  0.28196236    -0.08900
C3031       C  0.49516455  0.34396506  0.26276881     0.29900
C3032       C  0.96957656  0.33864958  0.25033929    -0.20900
C3033       C  0.94645810  0.34413911  0.25779413    -0.08900
C3034       C  0.94704495  0.34987075  0.27889907     0.29900
F3035       F  0.92206704  0.34539689  0.28951653    -0.19500
H3036       H  0.97533772  0.36995135  0.30450853     0.18300
H3037       H  0.96910391  0.33161458  0.23477988     0.18300
F3038       F  0.51693711  0.33808046  0.25568944    -0.19400
C3039       C  0.91836257  0.38400933  0.26429175    -0.20900
C3040       C  0.90280862  0.35581142  0.25422841    -0.08900
C3041       C  0.87047759  0.34031799  0.25511736     0.29900
C3042       C  0.85531630  0.35072344  0.26796019    -0.20900
C3043       C  0.87186185  0.37635976  0.28014598    -0.08900
C3044       C  0.90361969  0.39273371  0.27823031     0.29900
F3045       F  0.92049819  0.41759136  0.28978688    -0.19500
H3046       H  0.94289859  0.39784016  0.26305183     0.18300
H3047       H  0.83065688  0.33876332  0.26843380     0.18300
F3048       F  0.85323429  0.31637406  0.24302247    -0.19400
C3049       C  0.60848969  0.06865999  0.22421143    -0.20900
C3050       C  0.63170455  0.06079463  0.22362718    -0.08900
C3051       C  0.62949443  0.03998102  0.20855915     0.29900
C3052       C  0.60663738  0.02945149  0.19400586    -0.20900
C3053       C  0.58464649  0.03859796  0.19407111    -0.08900
C3054       C  0.58551873  0.05804007  0.20953362     0.29900
F3055       F  0.56376436  0.06621759  0.21085516    -0.19500
H3056       H  0.60723754  0.08231595  0.23628060     0.18300
H3057       H  0.60635211  0.01409939  0.18252095     0.18300
F3058       F  0.64983052  0.02992954  0.20776184    -0.19400
C3059       C  0.61994541  0.02839632  0.26251509    -0.20900
C3060       C  0.64802234  0.04140977  0.25177192    -0.08900
C3061       C  0.66488126  0.02592705  0.25259323     0.29900
C3062       C  0.65852299  0.50200121  0.26607474    -0.20900
C3063       C  0.63113956  0.49041317  0.27703044    -0.08900
C3064       C  0.61139991  0.00425885  0.27584303     0.29900
F3065       F  0.58517573  0.99371674  0.28676181    -0.19500
H3066       H  0.60539221  0.03837545  0.26152645     0.18300
H3067       H  0.67286142  0.49189070  0.26787646     0.18300
F3068       F  0.68875182  0.03296395  0.23995891    -0.19400
C3069       C  0.65771234  0.09197517  0.27590631    -0.20900
C3070       C  0.65839859  0.09569662  0.25452320    -0.08900
C3071       C  0.66116472  0.12318022  0.24705197     0.29900
C3072       C  0.65750633  0.14278465  0.26015986    -0.20900
C3073       C  0.65067982  0.13522311  0.28081035    -0.08900
C3074       C  0.65230348  0.11041452  0.28873720     0.29900
F3075       F  0.64672193  0.10274778  0.30874196    -0.19500
H3076       H  0.65970504  0.07380599  0.28299226     0.18300
H3077       H  0.65719178  0.16239418  0.25389615     0.18300
F3078       F  0.66467042  0.12982806  0.22687728    -0.19400
C3079       C  0.71275883  0.41837538  0.56790146    -0.20900
C3080       C  0.71287951  0.41585433  0.54667228    -0.08900
C3081       C  0.72956845  0.44228610  0.53505655     0.29900
C3082       C  0.74487904  0.47070294  0.54421672    -0.20900
C3083       C  0.74298245  0.47432382  0.56542252    -0.08900
C3084       C  0.72780749  0.44714648  0.57722076     0.29900
F3085       F  0.72690932  0.44836247  0.59780520    -0.19500
H3086       H  0.70068214  0.39816314  0.57724412     0.18300
H3087       H  0.75828333  0.48969601  0.53422419     0.18300
F3088       F  0.73131573  0.44065178  0.51457425    -0.19400
C3089       C  0.73539313  0.29644573  0.55614764    -0.20900
C3090       C  0.70727712  0.27959766  0.54647312    -0.08900
C3091       C  0.69374289  0.24784550  0.54618631     0.29900
C3092       C  0.70850454  0.23353669  0.55494058    -0.20900
C3093       C  0.73624794  0.25003575  0.56545822    -0.08900
C3094       C  0.74978558  0.28216202  0.56553329     0.29900
F3095       F  0.77793990  0.30040632  0.57315732    -0.19500
H3096       H  0.74681162  0.32100023  0.55593776     0.18300
H3097       H  0.69807012  0.20915574  0.55359217     0.18300
F3098       F  0.66710300  0.23061744  0.53634501    -0.19400
C3099       C  0.57000914  0.29889339  0.55891193    -0.20900
C3100       C  0.57711690  0.28227161  0.54521897    -0.08900
C3101       C  0.55439351  0.25221482  0.54101597     0.29900
C3102       C  0.52571435  0.23934518  0.55048652    -0.20900
C3103       C  0.51853065  0.25537689  0.56492957    -0.08900
C3104       C  0.54137737  0.28609615  0.56848907     0.29900
F3105       F  0.53648777  0.30489180  0.58048209    -0.19500
H3106       H  0.58655640  0.32234550  0.56194693     0.18300
H3107       H  0.50887442  0.21632364  0.54662505     0.33300
F3108       F  0.55928582  0.23536842  0.52712662    -0.19400
C3109       C  0.75783909  0.05293182  0.45363729    -0.20900
C3110       C  0.78683249  0.07517892  0.44703743    -0.08900
C3111       C  0.80010173  0.06899931  0.43032718     0.29900
C3112       C  0.78464889  0.04066938  0.42070206    -0.20900
C3113       C  0.75679641  0.01676965  0.42861141    -0.08900
C3114       C  0.74300182  0.02425737  0.44466711     0.29900
F3115       F  0.71524943  0.00360961  0.45211811    -0.19500
H3116       H  0.74702890  0.05742523  0.46637756     0.18300
H3117       H  0.79494035  0.03763481  0.40714848     0.18300
F3118       F  0.82774297  0.09045556  0.42313413    -0.19400
C3119       C  0.68705183  0.40706738  0.44911057    -0.20900
C3120       C  0.70560600  0.40893391  0.46543573    -0.08900
C3121       C  0.73590155  0.43291620  0.46550090     0.29900
C3122       C  0.74616516  0.45585276  0.45072191    -0.20900
C3123       C  0.72690566  0.45583624  0.43515822    -0.08900
C3124       C  0.69782163  0.42921540  0.43369751     0.29900
F3125       F  0.68060739  0.42245421  0.41676702    -0.19500
H3126       H  0.66441702  0.38760214  0.44777908     0.18300
H3127       H  0.76946741  0.47424361  0.45157394     0.18300
F3128       F  0.75579084  0.43452439  0.47988856    -0.19400
C3129       C  0.81540613  0.49130425  0.39511399    -0.20900
C3130       C  0.80275632  0.46625440  0.38218565    -0.08900
C3131       C  0.77171563  0.44518900  0.38355203     0.29900
C3132       C  0.75304263  0.45040694  0.39639618    -0.20900
C3133       C  0.76457659  0.47710068  0.40812480    -0.08900
C3134       C  0.79671301  0.49631229  0.40851372     0.29900
F3135       F  0.81052702  0.51894896  0.42217513    -0.19500
H3136       H  0.83977218  0.50665818  0.39501991     0.18300
H3137       H  0.72891675  0.43418849  0.39631061     0.18300
F3138       F  0.75932815  0.41977151  0.37202255    -0.19400
C3139       C  0.70096771  0.47890411  0.36826236    -0.20900
C3140       C  0.67083501  0.46696645  0.37476341    -0.08900
C3141       C  0.66490672  0.46762950  0.39563473     0.29900
C3142       C  0.68849614  0.47669766  0.40983261    -0.20900
C3143       C  0.71755727  0.48223562  0.40357262    -0.08900
C3144       C  0.72425249  0.48725119  0.38236070     0.29900
F3145       F  0.75305596  0.49934963  0.37491748    -0.19500
H3146       H  0.70630429  0.48012670  0.35219151     0.18300
H3147       H  0.68310426  0.47565142  0.42587615     0.18300
F3148       F  0.63601434  0.45754146  0.40234994    -0.19400
C3149       C  0.79018589  0.23990617  0.41815667    -0.20900
C3150       C  0.76894303  0.24565616  0.42853403    -0.08900
C3151       C  0.75811526  0.23064225  0.44768483     0.29900
C3152       C  0.77001646  0.21361958  0.45641223    -0.20900
C3153       C  0.79286420  0.21033792  0.44670278    -0.08900
C3154       C  0.80306927  0.22381777  0.42745686     0.29900
F3155       F  0.82474064  0.22061264  0.41736415    -0.19500
H3156       H  0.79697190  0.24795728  0.40270939     0.18300
H3157       H  0.76137859  0.20307857  0.47114783     0.18300
F3158       F  0.73462562  0.23047940  0.45784156    -0.19400
C3159       C  0.69611844  0.27722382  0.44879809    -0.20900
C3160       C  0.71482247  0.29578894  0.46426759    -0.08900
C3161       C  0.74572388  0.30419500  0.46417864     0.29900
C3162       C  0.75736216  0.29318984  0.44915521    -0.20900
C3163       C  0.73859226  0.27344665  0.43373365    -0.08900
C3164       C  0.70772905  0.26680374  0.43343753     0.29900
F3165       F  0.68888745  0.25240733  0.41777967    -0.19500
H3166       H  0.67241455  0.27141769  0.44829003     0.18300
H3167       H  0.78124814  0.29971710  0.44969088     0.18300
F3168       F  0.76440964  0.32208168  0.47907308    -0.19400
C3169       C  0.70535684  0.21169401  0.40941235    -0.20900
C3170       C  0.73098544  0.23873795  0.40236049    -0.08900
C3171       C  0.73438656  0.24284493  0.38092903     0.29900
C3172       C  0.70952032  0.22702461  0.36833535    -0.20900
C3173       C  0.68219443  0.20312256  0.37594505    -0.08900
C3174       C  0.68117073  0.19395782  0.39630231     0.29900
F3175       F  0.65592758  0.16935380  0.40382665    -0.19500
H3176       H  0.70275893  0.20577771  0.42539652     0.18300
H3177       H  0.71171790  0.23350591  0.35243106     0.18300
F3178       F  0.76140113  0.26208097  0.37182375    -0.19400
C3179       C  0.77918028  0.33118781  0.38183097    -0.20900
C3180       C  0.81020753  0.34208196  0.37902797    -0.08900
C3181       C  0.82468478  0.32989926  0.39086232     0.29900
C3182       C  0.80758759  0.30572084  0.40452603    -0.20900
C3183       C  0.77550851  0.29246767  0.40592429    -0.08900
C3184       C  0.76216820  0.30732824  0.39513811     0.29900
F3185       F  0.73184612  0.29720813  0.39602882    -0.19500
H3186       H  0.76788663  0.34114554  0.37340088     0.18300
H3187       H  0.81971737  0.29767023  0.41377500     0.18300
F3188       F  0.85524793  0.34154379  0.38933098    -0.19400
C3189       C  0.95988840  0.24267283  0.42325070    -0.20900
C3190       C  0.98135239  0.23268103  0.42612971    -0.08900
C3191       C  0.97200956  0.20659127  0.43853905     0.29900
C3192       C  0.94286756  0.19148261  0.44748030    -0.20900
C3193       C  0.92235071  0.20227151  0.44492418    -0.08900
C3194       C  0.93106024  0.22785640  0.43253074     0.29900
F3195       F  0.91185200  0.23900188  0.42969765    -0.19500
H3196       H  0.96529919  0.26272006  0.41442718     0.18300
H3197       H  0.93693068  0.17217354  0.45735860     0.18300
F3198       F  0.99136714  0.19592432  0.44235078    -0.19400
C3199       C  0.56276272  0.25329362  0.43595733    -0.20900
C3200       C  0.53828500  0.25949910  0.43590311    -0.08900
C3201       C  0.53500721  0.27355559  0.45357846     0.29900
C3202       C  0.55833903  0.28615677  0.46808495    -0.20900
C3203       C  0.58455969  0.28340225  0.46606911    -0.08900
C3204       C  0.58585482  0.26578278  0.45023441     0.29900
F3205       F  0.60987922  0.26101923  0.44810477    -0.19500
H3206       H  0.56512483  0.23902948  0.42489190     0.18300
H3207       H  0.55595953  0.29826313  0.48083464     0.18300
F3208       F  0.51045038  0.27738354  0.45603170    -0.19400
C3209       C  0.54805589  0.33318170  0.39659338    -0.20900
C3210       C  0.54149143  0.32675979  0.37597384    -0.08900
C3211       C  0.52172942  0.29660087  0.37034143     0.29900
C3212       C  0.50891570  0.27392481  0.38508116    -0.20900
C3213       C  0.52012770  0.27910406  0.40524866    -0.08900
C3214       C  0.53890046  0.30994644  0.41094951     0.29900
F3215       F  0.54925582  0.31887960  0.42994542    -0.19500
H3216       H  0.56194741  0.35641850  0.40151770     0.18300
H3217       H  0.99170211  0.25229617  0.38103738     0.18300
F3218       F  0.51606224  0.28851312  0.35050497    -0.19400
C3219       C  0.55191879  0.24980126  0.39067277    -0.20900
C3220       C  0.52414874  0.23276573  0.40168144    -0.08900
C3221       C  0.50602629  0.20164652  0.39657763     0.29900
C3222       C  0.51731295  0.18807156  0.38313697    -0.20900
C3223       C  0.54547864  0.20539739  0.37325045    -0.08900
C3224       C  0.56181432  0.23666532  0.37633440     0.29900
F3225       F  0.58836641  0.25433770  0.36618602    -0.19500
H3226       H  0.56646240  0.27379023  0.39348795     0.18300
H3227       H  0.50391129  0.16397442  0.38026260     0.18300
F3228       F  0.97446422  0.18724562  0.40054993    -0.19400
C3229       C  0.89157567  0.10473883  0.20195328    -0.20900
C3230       C  0.88567852  0.12431335  0.21355678    -0.08900
C3231       C  0.89469123  0.12913670  0.23391706     0.29900
C3232       C  0.90883615  0.11391346  0.24251817    -0.20900
C3233       C  0.91582707  0.09469637  0.23081452    -0.08900
C3234       C  0.90607874  0.08996113  0.21024693     0.29900
F3235       F  0.90825643  0.06957896  0.19814384    -0.19500
H3236       H  0.88442928  0.10045746  0.18621615     0.18300
H3237       H  0.91428178  0.11703139  0.25854246     0.18300
F3238       F  0.88861423  0.14737854  0.24569598    -0.19400
C3239       C  0.87045374  0.25813509  0.23471254    -0.20900
C3240       C  0.87789074  0.25498966  0.21462444    -0.08900
C3241       C  0.90047925  0.28053348  0.20432475     0.29900
C3242       C  0.91405615  0.30886172  0.21330089    -0.20900
C3243       C  0.90596140  0.31319786  0.23311128    -0.08900
C3244       C  0.88539915  0.28673129  0.24421281     0.29900
F3245       F  0.87958509  0.28853591  0.26416917    -0.19500
H3246       H  0.85401375  0.23840577  0.24322588     0.18300
H3247       H  0.93188743  0.32721538  0.20458055     0.18300
F3248       F  0.90963596  0.27816233  0.18529632    -0.19400
C3249       C  0.74494936  0.10901015  0.23233888    -0.20900
C3250       C  0.74848352  0.11909166  0.21215587    -0.08900
C3251       C  0.72272514  0.11397545  0.20112438     0.29900
C3252       C  0.69381509  0.09763326  0.20967017    -0.20900
C3253       C  0.68940689  0.08654488  0.22987009    -0.08900
C3254       C  0.71590017  0.09418857  0.24143392     0.29900
F3255       F  0.71370659  0.08708226  0.26151858    -0.19500
H3256       H  0.76472652  0.11358457  0.24124252     0.18300
H3257       H  0.67510594  0.09513292  0.20042972     0.18300
F3258       F  0.72544875  0.12497084  0.18190346    -0.19400
C3259       C  0.93910254  0.04716916  0.12674268    -0.20900
C3260       C  0.96144624  0.04389639  0.11634647    -0.08900
C3261       C  0.97042849  0.05646681  0.09684269     0.29900
C3262       C  0.95758933  0.07281777  0.08819692    -0.20900
C3263       C  0.93751808  0.07922971  0.09944547    -0.08900
C3264       C  0.92696188  0.06412268  0.11851598     0.29900
F3265       F  0.90378681  0.06397585  0.12907561    -0.19500
H3266       H  0.93117946  0.03678757  0.14160767     0.18300
H3267       H  0.96407597  0.08134893  0.07280007     0.18300
F3268       F  0.99102315  0.05240523  0.08603626    -0.19400
C3269       C  0.87830506  0.10263942  0.10334847    -0.20900
C3270       C  0.90849501  0.10815046  0.10564398    -0.08900
C3271       C  0.92504946  0.12534369  0.12264232     0.29900
C3272       C  0.91136109  0.13473119  0.13715586    -0.20900
C3273       C  0.88107928  0.12812985  0.13501618    -0.08900
C3274       C  0.86476784  0.11230471  0.11783381     0.29900
F3275       F  0.83610339  0.10716367  0.11456466    -0.19500
H3276       H  0.86514896  0.09201876  0.08996034     0.18300
H3277       H  0.92458816  0.14716079  0.15020848     0.18300
F3278       F  0.95445455  0.13251230  0.12546460    -0.19400
C3279       C  0.95940323  0.17289176  0.05889928    -0.20900
C3280       C  0.99018896  0.18153326  0.05768866    -0.08900
C3281       C  0.00129668  0.16595058  0.06930048     0.29900
C3282       C  0.98106016  0.14054089  0.08096276    -0.20900
C3283       C  0.94920926  0.12936078  0.08027874    -0.08900
C3284       C  0.93924512  0.14760494  0.07012207     0.29900
F3285       F  0.90934405  0.13943220  0.06934530    -0.19500
H3286       H  0.95068131  0.18526027  0.05039195     0.18300
H3287       H  0.99063907  0.12974595  0.09015228     0.18300
F3288       F  0.52829581  0.17080193  0.06820035    -0.19400
C3289       C  0.94322768  0.37806592  0.08478580    -0.20900
C3290       C  0.92833674  0.35143926  0.09699916    -0.08900
C3291       C  0.92383685  0.35548701  0.11788481     0.29900
C3292       C  0.93788581  0.38431431  0.12640154    -0.20900
C3293       C  0.95533568  0.41017197  0.11453608    -0.08900
C3294       C  0.95714527  0.40713609  0.09349044     0.29900
F3295       F  0.97306567  0.43202544  0.08151876    -0.19500
H3296       H  0.94555404  0.37620866  0.06855413     0.18300
H3297       H  0.93517753  0.38647453  0.14257178     0.18300
F3298       F  0.90507899  0.33220921  0.13032206    -0.19400
C3299       C  0.87355687  0.26911344  0.10335767    -0.20900
C3300       C  0.90386709  0.29362421  0.10326439    -0.08900
C3301       C  0.92387229  0.29281745  0.11809897     0.29900
C3302       C  0.91336212  0.26988390  0.13292918    -0.20900
C3303       C  0.88268729  0.24740712  0.13367182    -0.08900
C3304       C  0.86286169  0.24716303  0.11877582     0.29900
F3305       F  0.83310905  0.22515644  0.11885180    -0.19500
H3306       H  0.85763790  0.26613653  0.09155622     0.18300
H3307       H  0.92900836  0.27030139  0.14429659     0.18300
F3308       F  0.95354013  0.31489760  0.11867539    -0.19400
C3309       C  0.89475891  0.31418864  0.05027633    -0.20900
C3310       C  0.89135369  0.31631565  0.07151477    -0.08900
C3311       C  0.86385571  0.31470454  0.07811479     0.29900
C3312       C  0.83904486  0.30488045  0.06485178    -0.20900
C3313       C  0.84151512  0.29804727  0.04449225    -0.08900
C3314       C  0.87000089  0.30379488  0.03720608     0.29900
F3315       F  0.87374667  0.29832975  0.01751373    -0.19500
H3316       H  0.91629099  0.31928545  0.04350941     0.18300
H3317       H  0.81755832  0.30170888  0.07062495     0.18300
F3318       F  0.85996398  0.31982970  0.09784252    -0.19400
C3319       C  0.93170036  0.28792177  0.06569499    -0.20900
C3320       C  0.94143930  0.31576807  0.07580430    -0.08900
C3321       C  0.97326694  0.33690754  0.07553782     0.29900
C3322       C  0.99321098  0.33152293  0.06361376    -0.20900
C3323       C  0.98225231  0.30480260  0.05238927    -0.08900
C3324       C  0.95146097  0.28285483  0.05381599     0.29900
F3325       F  0.94039335  0.25643345  0.04346126    -0.19500
H3326       H  0.90797408  0.27036371  0.06624433     0.18300
H3327       H  0.01732298  0.34793295  0.06342559     0.18300
F3328       F  0.98588395  0.36166700  0.08758718    -0.19400
C3329       C  0.61623560  0.07143795  0.12060771    -0.20900
C3330       C  0.59440858  0.04291389  0.11337334    -0.08900
C3331       C  0.60243968  0.03079266  0.09681052     0.29900
C3332       C  0.63181798  0.04713866  0.08789020    -0.20900
C3333       C  0.65423165  0.07556457  0.09568970    -0.08900
C3334       C  0.64521486  0.08744236  0.11204035     0.29900
F3335       F  0.66471324  0.11477361  0.12017709    -0.19500
H3336       H  0.61111435  0.08152399  0.13342581     0.18300
H3337       H  0.63645840  0.03767155  0.07458179     0.18300
F3338       F  0.58174968  0.00374433  0.08885273    -0.19400
C3339       C  0.70768052  0.09140722  0.12127410    -0.20900
C3340       C  0.71218835  0.10703613  0.10257758    -0.08900
C3341       C  0.74196806  0.13168166  0.09869842     0.29900
C3342       C  0.76413099  0.14288285  0.11388176    -0.20900
C3343       C  0.75852640  0.12840137  0.13280911    -0.08900
C3344       C  0.73045562  0.10177992  0.13608610     0.29900
F3345       F  0.72474111  0.08589626  0.15376061    -0.19500
H3346       H  0.68654453  0.07080297  0.12453296     0.18300
H3347       H  0.78611196  0.16256323  0.11062567     0.18300
F3348       F  0.74986421  0.14563079  0.08033032    -0.19400
C3349       C  0.69728744  0.15141378  0.08396880    -0.20900
C3350       C  0.68399861  0.12190169  0.07583765    -0.08900
C3351       C  0.66849160  0.11707736  0.05716379     0.29900
C3352       C  0.67562186  0.14176431  0.04429081    -0.20900
C3353       C  0.69508376  0.17158607  0.05087996    -0.08900
C3354       C  0.70201623  0.17598374  0.07172942     0.29900
F3355       F  0.71683573  0.20434253  0.07959849    -0.19500
H3356       H  0.70601547  0.15606676  0.09928688     0.18300
H3357       H  0.66833580  0.13719944  0.02863241     0.18300
F3358       F  0.65115159  0.08865398  0.04978572    -0.19400
C3359       C  0.88323044  0.07058272  0.03836885    -0.20900
C3360       C  0.85522452  0.04624693  0.04471047    -0.08900
C3361       C  0.85249294  0.03504952  0.06467571     0.29900
C3362       C  0.87594076  0.05069127  0.07861619    -0.20900
C3363       C  0.90263881  0.07771339  0.07290616    -0.08900
C3364       C  0.90741236  0.08447963  0.05180342     0.29900
F3365       F  0.93512596  0.10430511  0.04383827    -0.19500
H3366       H  0.88646149  0.07900461  0.02287255     0.18300
H3367       H  0.87217721  0.04309566  0.09430648     0.18300
F3368       F  0.82622398  0.01053981  0.07111428    -0.19400
C3369       C  0.72434901  0.07917543  0.03958345    -0.20900
C3370       C  0.71926748  0.05022508  0.04417312    -0.08900
C3371       C  0.70407388  0.03610456  0.06234819     0.29900
C3372       C  0.69346552  0.05069432  0.07540846    -0.20900
C3373       C  0.69664828  0.07926300  0.07038333    -0.08900
C3374       C  0.71378613  0.09375721  0.05238128     0.29900
F3375       F  0.72249551  0.12282342  0.04728423    -0.19500
H3376       H  0.73740657  0.09097132  0.02612876     0.18300
H3377       H  0.68285460  0.03966423  0.08965593     0.18300
F3378       F  0.70030786  0.00860703  0.06771627    -0.19400
C3379       C  0.78784990  0.39630212  0.75493489    -0.20900
C3380       C  0.81504231  0.40445242  0.76576043    -0.08900
C3381       C  0.81140533  0.39318678  0.78607834     0.29900
C3382       C  0.78268552  0.37700999  0.79513286    -0.20900
C3383       C  0.75635549  0.37148641  0.78487165    -0.08900
C3384       C  0.75901984  0.38127235  0.76458068     0.29900
F3385       F  0.73380842  0.37556547  0.75395145    -0.19500
H3386       H  0.78906171  0.40226399  0.73899035     0.18300
H3387       H  0.78105164  0.36891397  0.81056948     0.18300
F3388       F  0.83499773  0.39557549  0.79721402    -0.19400
C3389       C  0.58218057  0.18960062  0.77837056    -0.20900
C3390       C  0.59732123  0.18470194  0.76190042    -0.08900
C3391       C  0.62581727  0.21045924  0.75607374     0.29900
C3392       C  0.63927177  0.23728804  0.76769352    -0.20900
C3393       C  0.62410440  0.24072182  0.78449550    -0.08900
C3394       C  0.59487458  0.21677431  0.78917098     0.29900
F3395       F  0.57844705  0.21909385  0.80471686    -0.19500
H3396       H  0.56011046  0.17276121  0.78341711     0.18300
H3397       H  0.66133999  0.25582594  0.76314258     0.18300
F3398       F  0.64050547  0.21099908  0.73865073    -0.19400
C3399       C  0.59985851  0.35490820  0.77107904    -0.20900
C3400       C  0.62413580  0.37225570  0.78408390    -0.08900
C3401       C  0.63278242  0.40300741  0.78683596     0.29900
C3402       C  0.61700146  0.41559007  0.77720363    -0.20900
C3403       C  0.59284895  0.39868779  0.76372034    -0.08900
C3404       C  0.58447907  0.36764224  0.76092718     0.29900
F3405       F  0.56102855  0.34867168  0.74896243    -0.19500
H3406       H  0.59237908  0.33109911  0.76892519     0.18300
H3407       H  0.62381201  0.43903907  0.78028121     0.18300
F3408       F  0.65579848  0.42090988  0.79952600    -0.19400
C3409       C  0.53180716  0.08968894  0.89705623    -0.20900
C3410       C  0.54659899  0.08534573  0.88031680    -0.08900
C3411       C  0.57582336  0.10890026  0.87496470     0.29900
C3412       C  0.58966634  0.13582008  0.88589573    -0.20900
C3413       C  0.57489430  0.14127491  0.90227532    -0.08900
C3414       C  0.54588848  0.11694160  0.90823493     0.29900
F3415       F  0.53138004  0.11843288  0.92518011    -0.19500
H3416       H  0.50952459  0.07169691  0.90175851     0.18300
H3417       H  0.61210065  0.15324788  0.88101076     0.18300
F3418       F  0.59085631  0.10657126  0.85852198    -0.19400
C3419       C  0.63225397  0.25368782  0.88791529    -0.20900
C3420       C  0.62159894  0.24771235  0.86790969    -0.08900
C3421       C  0.59909530  0.21821622  0.86296692     0.29900
C3422       C  0.58900170  0.19465630  0.87733096    -0.20900
C3423       C  0.60162060  0.19954147  0.89708307    -0.08900
C3424       C  0.62188012  0.23020883  0.90248141     0.29900
F3425       F  0.63305381  0.23739629  0.92160919    -0.19500
H3426       H  0.64910354  0.27651068  0.89218264     0.18300
H3427       H  0.57121132  0.17255439  0.87267732     0.18300
F3428       F  0.58713778  0.21199020  0.84403637    -0.19400
C3429       C  0.67552950  0.19932187  0.92808102    -0.20900
C3430       C  0.67000777  0.18981424  0.94865916    -0.08900
C3431       C  0.64222473  0.16262504  0.95225191     0.29900
C3432       C  0.61783712  0.15419263  0.93876847    -0.20900
C3433       C  0.62118381  0.17298301  0.92185615    -0.08900
C3434       C  0.65130269  0.19176303  0.91485163     0.29900
F3435       F  0.65759789  0.20343752  0.89570260    -0.19500
H3436       H  0.69832243  0.21455669  0.92252156     0.18300
H3437       H  0.59558472  0.13566021  0.94298485     0.18300
F3438       F  0.63837228  0.14415700  0.96829365    -0.19400
C3439       C  0.53352793  0.18850809  0.94023149    -0.20900
C3440       C  0.54714241  0.19927166  0.95921694    -0.08900
C3441       C  0.57425854  0.19963775  0.96365927     0.29900
C3442       C  0.58816085  0.19054441  0.94920296    -0.20900
C3443       C  0.57492925  0.17915444  0.92989453    -0.08900
C3444       C  0.54727165  0.17881821  0.92568600     0.29900
F3445       F  0.53420477  0.17043374  0.90712370    -0.19500
H3446       H  0.51301160  0.18903233  0.93632486     0.18300
H3447       H  0.61071933  0.19519542  0.95307188     0.18300
F3448       F  0.58886477  0.21146176  0.98143348    -0.19400
C3449       C  0.89336903  0.46135470  0.87575353    -0.20900
C3450       C  0.91534393  0.45311498  0.88040290    -0.08900
C3451       C  0.90879031  0.43147637  0.89585225     0.29900
C3452       C  0.88047241  0.41802909  0.90605164    -0.20900
C3453       C  0.85728467  0.42452422  0.90028044    -0.08900
C3454       C  0.86502785  0.44748750  0.88538868     0.29900
F3455       F  0.84460452  0.45587051  0.87943198    -0.19500
H3456       H  0.89762902  0.47797580  0.86393923     0.18300
H3457       H  0.87719957  0.40278177  0.91851312     0.18300
F3458       F  0.92981809  0.42360529  0.90129235    -0.19400
C3459       C  0.76867435  0.38542239  0.89926895    -0.20900
C3460       C  0.79914740  0.39446497  0.89367504    -0.08900
C3461       C  0.80380646  0.38604056  0.87396021     0.29900
C3462       C  0.77972855  0.37253086  0.86013571    -0.20900
C3463       C  0.75029828  0.36606135  0.86554975    -0.08900
C3464       C  0.74480580  0.37213539  0.88533821     0.29900
F3465       F  0.71635098  0.36545128  0.89115991    -0.19500
H3466       H  0.76328947  0.38938802  0.91446112     0.18300
H3467       H  0.78408841  0.36681760  0.84516122     0.18300
F3468       F  0.83101077  0.38929751  0.86805819    -0.19400
C3469       C  0.82267636  0.35873880  0.91895818    -0.20900
C3470       C  0.81724467  0.38241027  0.92487093    -0.08900
C3471       C  0.80034158  0.37784999  0.94325580     0.29900
C3472       C  0.79398247  0.35381979  0.95622114    -0.20900
C3473       C  0.80122776  0.33175796  0.95069446    -0.08900
C3474       C  0.81517669  0.33389240  0.93183598     0.29900
F3475       F  0.82077613  0.31163310  0.92571282    -0.19500
H3476       H  0.83265037  0.35943294  0.90423019     0.18300
H3477       H  0.78129259  0.35117754  0.97013694     0.18300
F3478       F  0.78730432  0.39469622  0.94830550    -0.19400
C3479       C  0.80715209  0.44903069  0.91537646    -0.20900
C3480       C  0.82443461  0.43558911  0.92162691    -0.08900
C3481       C  0.84036520  0.44561976  0.94017907     0.29900
C3482       C  0.83158066  0.46025000  0.95435986    -0.20900
C3483       C  0.81074913  0.46988891  0.94915740    -0.08900
C3484       C  0.80096811  0.46654178  0.92882315     0.29900
F3485       F  0.78359935  0.47841773  0.92233682    -0.19500
H3486       H  0.79725848  0.44511472  0.90039058     0.18300
H3487       H  0.83970252  0.46210313  0.96975906     0.18300
F3488       F  0.86033705  0.43655920  0.94606076    -0.19400
C3489       C  0.58763569  0.45844196  0.90537677    -0.20900
C3490       C  0.57943989  0.42756371  0.90275706    -0.08900
C3491       C  0.55445554  0.41019822  0.88980184     0.29900
C3492       C  0.53854573  0.42296077  0.88036227    -0.20900
C3493       C  0.54718479  0.45368598  0.88292452    -0.08900
C3494       C  0.57177088  0.47117522  0.89579404     0.29900
F3495       F  0.58098685  0.50088932  0.89890249    -0.19500
H3496       H  0.60685148  0.47356408  0.91450321     0.18300
H3497       H  0.51998831  0.40883402  0.87032088     0.18300
F3498       F  0.54523162  0.38060563  0.88617743    -0.19400
C3499       C  0.60921955  0.35627801  0.87825892    -0.20900
C3500       C  0.63108710  0.37562691  0.86425817    -0.08900
C3501       C  0.63860447  0.40622022  0.86363783     0.29900
C3502       C  0.62584990  0.41741688  0.87790353    -0.20900
C3503       C  0.60743969  0.39913371  0.89422844    -0.08900
C3504       C  0.59706745  0.36735505  0.89272908     0.29900
F3505       F  0.57397984  0.34603569  0.90424492    -0.19500
H3506       H  0.60135842  0.33216216  0.87799499     0.18300
H3507       H  0.63200970  0.44109004  0.87702017     0.18300
F3508       F  0.65774048  0.42509857  0.84902651    -0.19400
C3509       C  0.59820613  0.37820792  0.93949102    -0.20900
C3510       C  0.58086878  0.38859236  0.92864379    -0.08900
C3511       C  0.54948169  0.37522222  0.93379128     0.29900
C3512       C  0.53598095  0.35028161  0.94717279    -0.20900
C3513       C  0.55373031  0.34032566  0.95746210    -0.08900
C3514       C  0.58523829  0.35569812  0.95425239     0.29900
F3515       F  0.60337962  0.34776437  0.96469992    -0.19500
H3516       H  0.62229926  0.38766154  0.93638822     0.18300
H3517       H  0.51161195  0.33899879  0.94978427     0.18300
F3518       F  0.53149015  0.38570182  0.92637959    -0.19400
C3519       C  0.64624102  0.46116970  0.95746412    -0.20900
C3520       C  0.67616296  0.46947601  0.95169891    -0.08900
C3521       C  0.68146949  0.46506612  0.93130864     0.29900
C3522       C  0.65723140  0.44855129  0.91816711    -0.20900
C3523       C  0.62670049  0.43843444  0.92405480    -0.08900
C3524       C  0.62227275  0.44765067  0.94360103     0.29900
F3525       F  0.59394132  0.44038879  0.95018407    -0.19500
H3526       H  0.64094129  0.46392572  0.97299113     0.18300
H3527       H  0.66343274  0.44312564  0.90384793     0.18300
F3528       F  0.71022854  0.47512234  0.92427847    -0.19400
C3529       C  0.60160841  0.91781860  0.91215886    -0.02100
C3530       C  0.82720730  0.91235347  0.90974202    -0.02100
C3531       C  0.59255083  0.67323854  0.91212569    -0.02100
O3532       O  0.66372678  0.87536130  0.80513759    -0.81400
C3533       C  0.63530511  0.77289691  0.85251223     0.98000
O3534       O  0.62338672  0.78889852  0.84830437    -0.70500
O3535       O  0.62469376  0.84018704  0.83991963    -0.74100
Al3536     Al  0.62782870  0.81058920  0.82358848     1.49000
C3537       C  0.64350829  0.86397879  0.84905933     0.93200
O3538       O  0.72237102  0.87417787  0.84008284    -0.80300
O3539       O  0.72153317  0.83375503  0.80813075    -0.73900
Al3540     Al  0.69065175  0.87001282  0.82237872     1.90100
O3541       O  0.71016928  0.82778250  0.84894197    -0.72900
O3542       O  0.66772169  0.78341767  0.80133548    -0.72800
O3543       O  0.65847879  0.77635475  0.84291304    -0.78400
O3544       O  0.62207810  0.77643986  0.80747184    -0.76600
O3545       O  0.66866467  0.82928787  0.82370197    -1.12800
O3546       O  0.62594061  0.82998750  0.79893127    -0.72000
C3547       C  0.63922131  0.85837413  0.79610913     0.98800
C3548       C  0.72617681  0.85613275  0.85128740     0.95100
Al3549     Al  0.68766460  0.80733869  0.82512228     1.55600
O3550       O  0.67171267  0.87584068  0.84566341    -0.76600
C3551       C  0.63922748  0.76859089  0.79843558     0.99300
C3552       C  0.72849693  0.85713082  0.79752343     0.94200
O3553       O  0.71280925  0.87015642  0.79861321    -0.81900
N3554       N  0.77376389  0.52565706  0.02614393    -0.36200
N3555       N  0.72710763  0.01150345  0.99758289    -0.56700
N3556       N  0.75934055  0.99445069  0.96859817    -0.36200
N3557       N  0.80972413  0.01243326  0.99688397    -0.56700
C3558       C  0.75466737  0.53040912  0.03811085     0.27400
C3559       C  0.79769720  0.52985860  0.03771084     0.27400
C3560       C  0.72997070  0.97863486  0.96235736     0.27400
C3561       C  0.77356525  0.97960800  0.96157460     0.27400
C3562       C  0.71599636  0.52289318  0.01198620     0.36000
C3563       C  0.70959094  0.00672628  0.98098542     0.36000
C3564       C  0.82717153  0.52063372  0.01069055     0.36000
C3565       C  0.82188793  0.00611569  0.98055129     0.36000
C3566       C  0.76650708  0.53772679  0.05752317    -0.21500
C3567       C  0.79365405  0.53776513  0.05724306    -0.21500
C3568       C  0.72540938  0.95302687  0.95195858    -0.21500
C3569       C  0.75293809  0.95384374  0.95124731    -0.21500
C3570       C  0.69570248  0.53029350  0.00309615    -0.22500
C3571       C  0.69138869  0.01972001  0.98373598    -0.22500
C3572       C  0.85398148  0.52531359  0.00147512    -0.22500
C3573       C  0.85183156  0.01409137  0.98439900    -0.22500
C3574       C  0.72877854  0.53188963  0.03150085    -0.17900
C3575       C  0.82440900  0.52987942  0.03058105    -0.17900
C3576       C  0.80490418  0.98908992  0.96365309    -0.17900
C3577       C  0.70788599  0.98799491  0.96456755    -0.17900
H3578       H  0.75727375  0.54382774  0.07038206     0.15000
H3579       H  0.80901809  0.54432925  0.06996184     0.15000
H3580       H  0.70444300  0.93561626  0.94537236     0.15000
H3581       H  0.75719894  0.93714414  0.94408895     0.15000
H3582       H  0.68722265  0.54439013  0.00935173     0.13300
H3583       H  0.67533461  0.02031910  0.97319393     0.13300
H3584       H  0.87666180  0.53567396  0.00766133     0.13300
H3585       H  0.86768000  0.01180227  0.97448319     0.13300
H3586       H  0.77228961  0.52341749  0.01047079     0.26600
H3587       H  0.76987754  0.01581035  0.97530773     0.26600
C3588       C  0.68525946  0.59424967  0.08589478    -0.02100
C3589       C  0.91457822  0.81885167  0.08607599    -0.02100
C3590       C  0.92216866  0.59525563  0.08816935    -0.02100
O3591       O  0.88059137  0.66658945  0.20206343    -0.81400
C3592       C  0.78176229  0.64016525  0.14838600     0.98000
O3593       O  0.78522779  0.62182860  0.15951109    -0.70500
O3594       O  0.83790880  0.62475345  0.15190229    -0.74100
Al3595     Al  0.81825106  0.62636704  0.17624580     1.49000
C3596       C  0.86639338  0.63674377  0.14957549     0.93200
O3597       O  0.88392703  0.70835592  0.15291467    -0.80300
O3598       O  0.83721486  0.71002480  0.19970600    -0.73900
Al3599     Al  0.87955975  0.68636212  0.17735968     1.90100
O3600       O  0.84765595  0.71937356  0.15837102    -0.72900
O3601       O  0.78543898  0.65937297  0.19165148    -0.72800
O3602       O  0.79824536  0.66833697  0.15101953    -0.78400
O3603       O  0.79610213  0.62382006  0.20045395    -0.76600
O3604       O  0.83890800  0.66685344  0.17645570    -1.12800
O3605       O  0.84652274  0.62097653  0.19250317    -0.72000
C3606       C  0.86954520  0.63820473  0.20295346     0.98800
C3607       C  0.87071020  0.72311820  0.14849398     0.95100
Al3608     Al  0.81889506  0.68750978  0.17542715     1.55600
O3609       O  0.88433913  0.65800026  0.16101627    -0.76600
C3610       C  0.77929533  0.63566596  0.20161039     0.99300
C3611       C  0.86563591  0.72583379  0.20215991     0.94200
O3612       O  0.88358030  0.71913532  0.19323881    -0.81900
N3613       N  0.53625938  0.76566758  0.97649045    -0.36200
N3614       N  0.52476906  0.80175270  0.00605377    -0.56700
N3615       N  0.00981715  0.75311268  0.03608601    -0.36200
N3616       N  0.52480598  0.71976292  0.00786647    -0.56700
C3617       C  0.54774816  0.79239810  0.96621292     0.27400
C3618       C  0.54579832  0.74833025  0.96675945     0.27400
C3619       C  0.00602093  0.77299722  0.04751839     0.27400
C3620       C  0.00987652  0.73236366  0.04889184     0.27400
C3621       C  0.53028890  0.81981450  0.98962945     0.36000
C3622       C  0.01091946  0.80927379  0.02052004     0.36000
C3623       C  0.52602331  0.70480488  0.99126789     0.36000
C3624       C  0.01493588  0.69876453  0.02353163     0.36000
C3625       C  0.56365168  0.79125095  0.94923737    -0.21500
C3626       C  0.56276959  0.76381756  0.94975551    -0.21500
C3627       C  0.00404800  0.76511180  0.06788460    -0.21500
C3628       C  0.00668158  0.73949245  0.06877798    -0.21500
C3629       C  0.52246366  0.84185810  0.99396948    -0.22500
C3630       C  0.01014037  0.83458462  0.01353271    -0.22500
C3631       C  0.51425509  0.67433448  0.99585186    -0.22500
C3632       C  0.01071821  0.67100305  0.01706204    -0.22500
C3633       C  0.54379064  0.81757945  0.97127833    -0.17900
C3634       C  0.53887153  0.71848970  0.97228781    -0.17900
C3635       C  0.00661541  0.70430119  0.04293661    -0.17900
C3636       C  0.00078378  0.79591960  0.03988035    -0.17900
H3637       H  0.57471499  0.80821488  0.93743940     0.15000
H3638       H  0.57330701  0.75613055  0.93869154     0.15000
H3639       H  0.00003671  0.77607999  0.08065426     0.15000
H3640       H  0.00465880  0.72650641  0.08238288     0.15000
H3641       H  0.52505339  0.86037958  0.98443288     0.13300
H3642       H  0.00180155  0.84766189  0.02146626     0.13300
H3643       H  0.51237196  0.65671719  0.98576390     0.13300
H3644       H  0.00114034  0.64996681  0.02561899     0.13300
H3645       H  0.52073376  0.75858705  0.98844456     0.26600
H3646       H  0.00630668  0.75031935  0.02052368     0.26600
N3647       N  0.74520223  0.75487411  0.96766180    -0.36200
N3648       N  0.71023002  0.70906021  0.99822147    -0.56700
N3649       N  0.75767984  0.74439332  0.02885144    -0.36200
N3650       N  0.79262270  0.78935951  0.99804254    -0.56700
C3651       C  0.71771125  0.73929615  0.95836155     0.27400
C3652       C  0.75997020  0.78284119  0.95885561     0.27400
C3653       C  0.74137779  0.71657225  0.03756927     0.27400
C3654       C  0.78598831  0.75755359  0.03702329     0.27400
C3655       C  0.68830139  0.70107663  0.98400550     0.36000
C3656       C  0.69569397  0.69705462  0.01608000     0.36000
C3657       C  0.80350888  0.81013505  0.98283750     0.36000
C3658       C  0.81170753  0.80205190  0.01390219     0.36000
C3659       C  0.71480345  0.75826094  0.94441830    -0.21500
C3660       C  0.74168939  0.78481676  0.94395501    -0.21500
C3661       C  0.75954411  0.71210077  0.05122701    -0.21500
C3662       C  0.78752411  0.73795342  0.05107265    -0.21500
C3663       C  0.65985543  0.68616424  0.99336878    -0.22500
C3664       C  0.66453579  0.68262216  0.01350301    -0.22500
C3665       C  0.82947114  0.83611096  0.98910549    -0.22500
C3666       C  0.83451234  0.83106992  0.00882002    -0.22500
C3667       C  0.69406244  0.70926865  0.96307649    -0.17900
C3668       C  0.78885609  0.80752344  0.96412964    -0.17900
C3669       C  0.81064104  0.78667147  0.03211582    -0.17900
C3670       C  0.71027151  0.69558833  0.03392698    -0.17900
H3671       H  0.69484847  0.75430359  0.93601082     0.15000
H3672       H  0.74626624  0.80392311  0.93429788     0.15000
H3673       H  0.75357654  0.69197596  0.05996846     0.15000
H3674       H  0.80703305  0.74149555  0.05989155     0.15000
H3675       H  0.63792295  0.67954141  0.98673570     0.13300
H3676       H  0.64709961  0.67115000  0.02503049     0.13300
H3677       H  0.84301593  0.85685355  0.98052951     0.13300
H3678       H  0.85308551  0.84683981  0.01824897     0.13300
H3679       H  0.75411552  0.74630999  0.97839304     0.26600
H3680       H  0.74913943  0.75445326  0.01897820     0.26600
C3681       C  0.51548498  0.74873157  0.41745863    -0.02100
C3682       C  0.75406380  0.76110462  0.41742386    -0.02100
C3683       C  0.73992909  0.98431306  0.41920826    -0.02100
O3684       O  0.61435043  0.78025263  0.52291365    -0.81400
C3685       C  0.69498160  0.88671023  0.48182574     0.98000
O3686       O  0.66646014  0.86959103  0.48391279    -0.70500
O3687       O  0.61360635  0.81848282  0.49072919    -0.74100
Al3688     Al  0.64585735  0.84678166  0.50792381     1.49000
C3689       C  0.61042946  0.79652386  0.48011341     0.93200
O3690       O  0.67889210  0.78619257  0.48924501    -0.80300
O3691       O  0.71300095  0.82102923  0.52668348    -0.73900
Al3692     Al  0.64897884  0.78746309  0.50644405     1.90100
O3693       O  0.71565493  0.83334422  0.48596148    -0.72900
O3694       O  0.70764575  0.86969506  0.53481970    -0.72800
O3695       O  0.71314511  0.88342045  0.49338647    -0.78400
O3696       O  0.67265835  0.88023412  0.52501318    -0.76600
O3697       O  0.66784781  0.82791225  0.50830203    -1.12800
O3698       O  0.62234240  0.82534737  0.53159072    -0.72000
C3699       C  0.60656119  0.79661889  0.53290170     0.98800
C3700       C  0.70312246  0.80590663  0.48067512     0.95100
Al3701     Al  0.70860608  0.84983334  0.51015748     1.55600
O3702       O  0.62847161  0.78642740  0.48226525    -0.76600
C3703       C  0.69547203  0.88616164  0.53589895     0.99300
C3704       C  0.69506938  0.79528053  0.53431098     0.94200
O3705       O  0.66705571  0.78206205  0.53023586    -0.81900
C3706       C  0.65834663  0.57072779  0.23928260    -0.02100
C3707       C  0.92464092  0.84478459  0.24171908    -0.02100
C3708       C  0.92993649  0.57785658  0.24227166    -0.02100
O3709       O  0.50360153  0.53895449  0.12773710    -0.81400
C3710       C  0.97956147  0.93841684  0.17761609     0.98000
O3711       O  0.96081507  0.94313510  0.16799595    -0.70500
O3712       O  0.96259160  0.99413677  0.17774746    -0.74100
Al3713     Al  0.96378074  0.97586223  0.15239565     1.49000
C3714       C  0.97304084  0.52304357  0.18052941     0.93200
O3715       O  0.54405860  0.53770936  0.17619455    -0.80300
O3716       O  0.54855437  0.99839301  0.12548294    -0.73900
Al3717     Al  0.52298057  0.53612468  0.15199584     1.90100
O3718       O  0.55704456  0.50394825  0.16761770    -0.72900
O3719       O  0.99686878  0.94474528  0.13253797    -0.72800
O3720       O  0.50767079  0.95498440  0.17428433    -0.78400
O3721       O  0.95961425  0.95459776  0.12762955    -0.76600
O3722       O  0.50444408  0.99679008  0.15073910    -1.12800
O3723       O  0.95835221  0.50540418  0.13695704    -0.72000
C3724       C  0.97599377  0.52884971  0.12682247     0.98800
C3725       C  0.56045142  0.52565639  0.17873197     0.95100
Al3726     Al  0.52607105  0.97761587  0.14988821     1.55600
O3727       O  0.99481061  0.54131790  0.16928738    -0.76600
C3728       C  0.97199836  0.93869988  0.12420139     0.99300
C3729       C  0.56395840  0.52573509  0.12548944     0.94200
O3730       O  0.55685346  0.54217685  0.13581806    -0.81900
N3731       N  0.60216296  0.67898690  0.35825720    -0.36200
N3732       N  0.55527043  0.66571280  0.32716368    -0.56700
N3733       N  0.59033840  0.65194724  0.29819147    -0.36200
N3734       N  0.63704233  0.66511540  0.32927837    -0.56700
C3735       C  0.58547928  0.68957394  0.36778228     0.27400
C3736       C  0.62796905  0.68800616  0.36923442     0.27400
C3737       C  0.56358845  0.64064090  0.28803898     0.27400
C3738       C  0.60716226  0.64153222  0.28871598     0.27400
C3739       C  0.54418596  0.67628664  0.34176833     0.36000
C3740       C  0.53570977  0.65744553  0.31139597     0.36000
C3741       C  0.65615330  0.67221376  0.34523111     0.36000
C3742       C  0.64971512  0.65763009  0.31383790     0.36000
C3743       C  0.60001251  0.70369665  0.38566011    -0.21500
C3744       C  0.62679264  0.70326138  0.38633165    -0.21500
C3745       C  0.56428616  0.62434142  0.27139300    -0.21500
C3746       C  0.59129755  0.62447902  0.27199505    -0.21500
C3747       C  0.51753948  0.67496666  0.33508922    -0.22500
C3748       C  0.51191911  0.66255629  0.31605780    -0.22500
C3749       C  0.68073176  0.66859504  0.33993699    -0.22500
C3750       C  0.67711311  0.66025428  0.31998604    -0.22500
C3751       C  0.55816151  0.68821855  0.36072750    -0.17900
C3752       C  0.65337908  0.68441138  0.36396277    -0.17900
C3753       C  0.63591097  0.64572813  0.29486196    -0.17900
C3754       C  0.53801386  0.64375069  0.29331271    -0.17900
H3755       H  0.59268815  0.71409111  0.39701790     0.15000
H3756       H  0.64363351  0.71378623  0.39804415     0.15000
H3757       H  0.54690961  0.61282660  0.26005490     0.15000
H3758       H  0.59781575  0.61241194  0.26145966     0.15000
H3759       H  0.50345127  0.68218161  0.34298290     0.13300
H3760       H  0.99828668  0.66642213  0.30459856     0.13300
H3761       H  0.69969346  0.67207499  0.34933857     0.13300
H3762       H  0.69261486  0.65584534  0.31118830     0.13300
H3763       H  0.59582528  0.66573330  0.34534645     0.26600
H3764       H  0.59737592  0.66694885  0.31024508     0.26600
N3765       N  0.82649421  0.91475126  0.35928071    -0.36200
N3766       N  0.84339596  0.88429246  0.32927711    -0.56700
N3767       N  0.84930820  0.92993990  0.29918248    -0.36200
N3768       N  0.83437953  0.96115410  0.33041994    -0.56700
C3769       C  0.82862848  0.89410692  0.37115335     0.27400
C3770       C  0.82285291  0.93379043  0.37175887     0.27400
C3771       C  0.86267790  0.91628505  0.28916442     0.27400
C3772       C  0.85929738  0.95745917  0.29024518     0.27400
C3773       C  0.83274439  0.86254508  0.34393211     0.36000
C3774       C  0.84681778  0.87153879  0.31220879     0.36000
C3775       C  0.82050255  0.96797937  0.34542215     0.36000
C3776       C  0.83623529  0.97837368  0.31417708     0.36000
C3777       C  0.82707550  0.90051103  0.39143579    -0.21500
C3778       C  0.82321560  0.92539456  0.39183634    -0.21500
C3779       C  0.88010949  0.93481226  0.27316297    -0.21500
C3780       C  0.87866286  0.96087957  0.27421616    -0.21500
C3781       C  0.82978275  0.83589437  0.33623465    -0.22500
C3782       C  0.83918402  0.84173021  0.31621112    -0.22500
C3783       C  0.81394162  0.99005508  0.33874849    -0.22500
C3784       C  0.82414562  0.99680452  0.31896605    -0.22500
C3785       C  0.82633199  0.86678273  0.36425186    -0.17900
C3786       C  0.81505706  0.95565551  0.36536438    -0.17900
C3787       C  0.85111406  0.97950153  0.29572251    -0.17900
C3788       C  0.85940074  0.88742474  0.29373761    -0.17900
H3789       H  0.82694195  0.88750105  0.40456635     0.15000
H3790       H  0.81973788  0.93512886  0.40545572     0.15000
H3791       H  0.89297096  0.93049696  0.26180711     0.15000
H3792       H  0.89084309  0.98017328  0.26421839     0.15000
H3793       H  0.82218060  0.81467371  0.34429414     0.13300
H3794       H  0.84023290  0.82580021  0.30584494     0.13300
H3795       H  0.80355380  0.00069479  0.34736967     0.13300
H3796       H  0.82373573  0.51555286  0.31154467     0.13300
H3797       H  0.82201033  0.91256510  0.34382684     0.26600
H3798       H  0.83261532  0.92005619  0.31039289     0.26600
N3799       N  0.59732826  0.90254790  0.35563672    -0.36200
N3800       N  0.62687220  0.95069676  0.32657586    -0.56700
N3801       N  0.57747113  0.91414574  0.29799195    -0.36200
N3802       N  0.54908229  0.86544378  0.32641478    -0.56700
C3803       C  0.62581862  0.91910444  0.36310916     0.27400
C3804       C  0.58615374  0.87374988  0.36242466     0.27400
C3805       C  0.59710781  0.93707788  0.28578292     0.27400
C3806       C  0.55490861  0.89340979  0.28613516     0.27400
C3807       C  0.64170180  0.96566653  0.34350610     0.36000
C3808       C  0.63143781  0.97196661  0.31252585     0.36000
C3809       C  0.53745165  0.85099225  0.34427706     0.36000
C3810       C  0.52524573  0.85705241  0.31378201     0.36000
C3811       C  0.63322443  0.90048201  0.37425892    -0.21500
C3812       C  0.60823377  0.87176027  0.37372171    -0.21500
C3813       C  0.58738313  0.93069283  0.26583043    -0.21500
C3814       C  0.56060137  0.90355623  0.26607039    -0.21500
C3815       C  0.65580423  0.99668650  0.34023472    -0.22500
C3816       C  0.64948694  0.00070482  0.32048976    -0.22500
C3817       C  0.50608271  0.83363371  0.34313335    -0.22500
C3818       C  0.49851243  0.83620219  0.32359190    -0.22500
C3819       C  0.64416512  0.95095871  0.36106628    -0.17900
C3820       C  0.55539455  0.85055256  0.36048990    -0.17900
C3821       C  0.52764244  0.86808242  0.29357713    -0.17900
C3822       C  0.62029507  0.96570617  0.29244843    -0.17900
H3823       H  0.65436628  0.90695794  0.38201598     0.15000
H3824       H  0.60630901  0.85183852  0.38119060     0.15000
H3825       H  0.59739629  0.94510843  0.25259382     0.15000
H3826       H  0.54655109  0.89378441  0.25288761     0.15000
H3827       H  0.66935303  0.01451095  0.35084596     0.13300
H3828       H  0.66184753  0.52161626  0.31095255     0.13300
H3829       H  0.49026795  0.81954239  0.35488640     0.13300
H3830       H  0.97315594  0.82634239  0.32053343     0.13300
H3831       H  0.58476581  0.91119867  0.34860027     0.26600
H3832       H  0.57694970  0.91524926  0.31372722     0.26600
C3833       C  0.84785113  0.92012439  0.75563880    -0.02100
C3834       C  0.58279886  0.65221729  0.75161776    -0.02100
C3835       C  0.57624719  0.91422476  0.75387786    -0.02100
O3836       O  0.54712253  0.99740991  0.86630896    -0.81400
C3837       C  0.94858154  0.97257687  0.81415739     0.98000
O3838       O  0.95266453  0.95394930  0.82454546    -0.70500
O3839       O  0.50172779  0.95154483  0.81997269    -0.74100
Al3840     Al  0.98401817  0.95723204  0.84223359     1.49000
C3841       C  0.52988118  0.96446042  0.81630032     0.93200
O3842       O  0.54701009  0.53784275  0.81839652    -0.80300
O3843       O  0.50312828  0.54094372  0.86649622    -0.73900
Al3844     Al  0.54353335  0.51574129  0.84285306     1.90100
O3845       O  0.51207558  0.54994806  0.82515896    -0.72900
O3846       O  0.95291552  0.99268944  0.85761756    -0.72800
O3847       O  0.96420923  0.00074703  0.81725710    -0.78400
O3848       O  0.96124149  0.95569561  0.86602973    -0.76600
O3849       O  0.50329039  0.99714605  0.84241584    -1.12800
O3850       O  0.50947143  0.95149981  0.86084493    -0.72000
C3851       C  0.53415883  0.96914302  0.86964330     0.98800
C3852       C  0.53478978  0.55382170  0.81479415     0.95100
Al3853     Al  0.98410801  0.51795813  0.84166766     1.55600
O3854       O  0.54816778  0.98831076  0.82543816    -0.76600
C3855       C  0.94561644  0.96874779  0.86750870     0.99300
C3856       C  0.53168942  0.55633546  0.86860301     0.94200
O3857       O  0.54877999  0.54892218  0.85918066    -0.81900
C3858       C  0.75831492  0.50658011  0.57543290    -0.02100
C3859       C  0.98828154  0.74266565  0.57356031    -0.02100
C3860       C  0.75422348  0.73361214  0.57334109    -0.02100
O3861       O  0.87903160  0.65926182  0.46026279    -0.81400
C3862       C  0.80473241  0.69045603  0.50949903     0.98000
O3863       O  0.82760932  0.70843238  0.49878242    -0.70500
O3864       O  0.87927903  0.70762877  0.50568477    -0.74100
Al3865     Al  0.85598755  0.70275646  0.48184680     1.49000
C3866       C  0.89414743  0.69438501  0.50982032     0.93200
O3867       O  0.83655202  0.62081172  0.50938786    -0.80300
O3868       O  0.79153278  0.61911314  0.46048137    -0.73900
Al3869     Al  0.85587296  0.64130636  0.48456775     1.90100
O3870       O  0.79005285  0.60899098  0.50176134    -0.72900
O3871       O  0.78987657  0.67020309  0.46737388    -0.72800
O3872       O  0.79364333  0.66214121  0.50787663    -0.78400
O3873       O  0.83581631  0.70397677  0.45752475    -0.76600
O3874       O  0.83577589  0.66204727  0.48344853    -1.12800
O3875       O  0.88837671  0.70585179  0.46498959    -0.72000
C3876       C  0.89482040  0.68739552  0.45659556     0.98800
C3877       C  0.80828759  0.60484933  0.51260424     0.95100
Al3878     Al  0.79502705  0.64194280  0.48419572     1.55600
O3879       O  0.88845267  0.67010876  0.50098948    -0.76600
C3880       C  0.80737972  0.69325581  0.45676902     0.99300
C3881       C  0.80279849  0.60190727  0.45890953     0.94200
O3882       O  0.82669242  0.60747828  0.46850709    -0.81900
N3883       N  0.89985530  0.79859939  0.64131598    -0.36200
N3884       N  0.95058965  0.81966906  0.66838260    -0.56700
N3885       N  0.91800272  0.83784258  0.69677332    -0.36200
N3886       N  0.86727818  0.81754329  0.66845044    -0.56700
C3887       C  0.91489238  0.78463656  0.63427678     0.27400
C3888       C  0.87056374  0.78167011  0.63538231     0.27400
C3889       C  0.94562745  0.85022414  0.70597709     0.27400
C3890       C  0.90235648  0.85033712  0.70544455     0.27400
C3891       C  0.96329085  0.81370031  0.65213721     0.36000
C3892       C  0.97221089  0.83133018  0.68284667     0.36000
C3893       C  0.84896907  0.81016130  0.65204100     0.36000
C3894       C  0.85858360  0.83252818  0.68129086     0.36000
C3895       C  0.89484021  0.75805581  0.62451236    -0.21500
C3896       C  0.86676230  0.75601427  0.62538343    -0.21500
C3897       C  0.94716477  0.87037977  0.72071246    -0.21500
C3898       C  0.92014314  0.87032992  0.72040102    -0.21500
C3899       C  0.99341740  0.82274389  0.65610283    -0.22500
C3900       C  0.99811044  0.83113450  0.67595891    -0.22500
C3901       C  0.82920114  0.82145129  0.65418506    -0.22500
C3902       C  0.83421085  0.83419489  0.67308445    -0.22500
C3903       C  0.94670122  0.79655905  0.63514905    -0.17900
C3904       C  0.84847343  0.79104307  0.63628910    -0.17900
C3905       C  0.87342831  0.84631990  0.69966785    -0.17900
C3906       C  0.97047980  0.84556468  0.70098287    -0.17900
H3907       H  0.90005645  0.74208642  0.61722534     0.15000
H3908       H  0.84608444  0.73823975  0.61871352     0.15000
H3909       H  0.96630892  0.88496367  0.73015754     0.15000
H3910       H  0.91502059  0.88486897  0.72945013     0.15000
H3911       H  0.50788327  0.81500850  0.65068666     0.13300
H3912       H  0.51515873  0.82991824  0.68827845     0.13300
H3913       H  0.81252299  0.82043055  0.64352064     0.13300
H3914       H  0.82169980  0.84428244  0.67960090     0.13300
H3915       H  0.90990203  0.82051551  0.64714488     0.26600
H3916       H  0.90989623  0.82098261  0.68586380     0.26600
N3917       N  0.67968892  0.58073644  0.63526545    -0.36200
N3918       N  0.66495817  0.53280566  0.66387181    -0.56700
N3919       N  0.65855832  0.57051697  0.69568014    -0.36200
N3920       N  0.67124783  0.61722288  0.66536477    -0.56700
C3921       C  0.67713561  0.55862368  0.62273038     0.27400
C3922       C  0.68027065  0.60282395  0.62347265     0.27400
C3923       C  0.64551965  0.54297998  0.70497782     0.27400
C3924       C  0.64871854  0.58758579  0.70556988     0.27400
C3925       C  0.67590883  0.52278658  0.64874111     0.36000
C3926       C  0.66163057  0.51565417  0.68046808     0.36000
C3927       C  0.68507131  0.63852305  0.65071385     0.36000
C3928       C  0.67105058  0.63204303  0.68227361     0.36000
C3929       C  0.67540959  0.56641515  0.60274678    -0.21500
C3930       C  0.67727677  0.59434822  0.60321310    -0.21500
C3931       C  0.62867235  0.54338725  0.72165702    -0.21500
C3932       C  0.63028979  0.57115998  0.72179568    -0.21500
C3933       C  0.67937581  0.49892087  0.65567827    -0.22500
C3934       C  0.66965729  0.49392444  0.67565150    -0.22500
C3935       C  0.69378802  0.66705991  0.65839443    -0.22500
C3936       C  0.68438195  0.66283934  0.67836046    -0.22500
C3937       C  0.68161798  0.53440632  0.62861536    -0.17900
C3938       C  0.68824630  0.63212375  0.63027819    -0.17900
C3939       C  0.65596796  0.61765982  0.70047306    -0.17900
C3940       C  0.64840100  0.51745958  0.69907917    -0.17900
H3941       H  0.67446745  0.55392654  0.58921774     0.15000
H3942       H  0.67803213  0.60765806  0.59008352     0.15000
H3943       H  0.61624452  0.52557688  0.73273291     0.15000
H3944       H  0.61908781  0.57833785  0.73268869     0.15000
H3945       H  0.68720966  0.48591354  0.64712887     0.13300
H3946       H  0.66687501  0.97612393  0.68630884     0.13300
H3947       H  0.70512460  0.68859757  0.65040879     0.13300
H3948       H  0.68689914  0.68032533  0.68881068     0.13300
H3949       H  0.68655425  0.58329467  0.65033909     0.26600
H3950       H  0.67454620  0.57767752  0.68397484     0.26600
N3951       N  0.92554426  0.57544758  0.69417499    -0.36200
N3952       N  0.95539305  0.62418080  0.66530134    -0.56700
N3953       N  0.90820819  0.58668547  0.63528875    -0.36200
N3954       N  0.87718380  0.53924186  0.66565771    -0.56700
C3955       C  0.94700607  0.59717283  0.70601198     0.27400
C3956       C  0.90499913  0.55372737  0.70674035     0.27400
C3957       C  0.92186388  0.61402007  0.62567213     0.27400
C3958       C  0.88151935  0.56867958  0.62562467     0.27400
C3959       C  0.97802197  0.63414608  0.67919838     0.36000
C3960       C  0.96689726  0.64229667  0.64872892     0.36000
C3961       C  0.86967836  0.51844434  0.68069747     0.36000
C3962       C  0.86018783  0.52432829  0.64938551     0.36000
C3963       C  0.93980160  0.58941824  0.72632644    -0.21500
C3964       C  0.91325569  0.56197523  0.72679352    -0.21500
C3965       C  0.90412720  0.61267586  0.60915739    -0.21500
C3966       C  0.87868954  0.58449625  0.60934508    -0.21500
C3967       C  0.00397507  0.65897060  0.67151663    -0.22500
C3968       C  0.99671740  0.66463847  0.65248058    -0.22500
C3969       C  0.84762036  0.49015363  0.67400233    -0.22500
C3970       C  0.84142870  0.49394698  0.65419208    -0.22500
C3971       C  0.97489992  0.62159785  0.69894892    -0.17900
C3972       C  0.88149194  0.52495452  0.70063915    -0.17900
C3973       C  0.85953620  0.53830371  0.63086991    -0.17900
C3974       C  0.95032830  0.63989887  0.63077601    -0.17900
H3975       H  0.95297267  0.60175148  0.73940688     0.15000
H3976       H  0.90195812  0.54896167  0.74033879     0.15000
H3977       H  0.90878923  0.62999093  0.59784906     0.15000
H3978       H  0.86023256  0.57670686  0.59858782     0.15000
H3979       H  0.52538977  0.66883099  0.67984468     0.13300
H3980       H  0.51164786  0.67908972  0.64348872     0.13300
H3981       H  0.83435036  0.96862410  0.68477944     0.13300
H3982       H  0.82485701  0.47644202  0.64447754     0.13300
H3983       H  0.92770518  0.57301486  0.67868739     0.26600
H3984       H  0.91766594  0.58009573  0.64682088     0.26600
C3985       C  0.78508646  0.74288492  0.53977935    -0.20900
C3986       C  0.76347429  0.72220544  0.55384816    -0.08900
C3987       C  0.74989668  0.69102950  0.54857610     0.29900
C3988       C  0.76366779  0.68131368  0.53437201    -0.20900
C3989       C  0.78975907  0.70211049  0.52357924    -0.08900
C3990       C  0.79926473  0.73320529  0.52549296     0.29900
F3991       F  0.82274326  0.75433404  0.51412032    -0.19500
H3992       H  0.79347090  0.76696351  0.54138339     0.18300
H3993       H  0.75356514  0.65718136  0.53179071     0.18300
F3994       F  0.72272013  0.66960667  0.55641432    -0.19400
C3995       C  0.77321469  0.75949644  0.60763128    -0.20900
C3996       C  0.78118752  0.75401278  0.58795501    -0.08900
C3997       C  0.81265849  0.76428578  0.58459245     0.29900
C3998       C  0.83399272  0.77979604  0.59969650    -0.20900
C3999       C  0.82498263  0.78049129  0.61979724    -0.08900
C4000       C  0.79385092  0.76910782  0.62367753     0.29900
F4001       F  0.78278277  0.76510073  0.64297388    -0.19500
H4002       H  0.74980238  0.75265916  0.61129891     0.18300
H4003       H  0.85785696  0.78861532  0.59606500     0.18300
F4004       F  0.82391023  0.75811934  0.56781038    -0.19400
C4005       C  0.74711985  0.68848066  0.59421300    -0.20900
C4006       C  0.73401562  0.70595854  0.58744317    -0.08900
C4007       C  0.70566345  0.69947724  0.59628486     0.29900
C4008       C  0.69047241  0.67504721  0.60982320    -0.20900
C4009       C  0.70351238  0.65744971  0.61553843    -0.08900
C4010       C  0.73201446  0.66443401  0.60771374     0.29900
F4011       F  0.74552374  0.64821151  0.61344494    -0.19500
H4012       H  0.76949344  0.69365295  0.58885265     0.18300
H4013       H  0.66889556  0.67040904  0.61640773     0.18300
F4014       F  0.69373327  0.71796733  0.59373180    -0.19400
C4015       C  0.94291668  0.69848323  0.55418122    -0.20900
C4016       C  0.96457978  0.72992490  0.55571889    -0.08900
C4017       C  0.96444570  0.74882648  0.53980486     0.29900
C4018       C  0.94107628  0.73759280  0.52523183    -0.20900
C4019       C  0.91842928  0.70686246  0.52529259    -0.08900
C4020       C  0.92015533  0.68735763  0.53957485     0.29900
F4021       F  0.89929189  0.65731535  0.53973176    -0.19500
H4022       H  0.94294259  0.68156990  0.56414775     0.18300
H4023       H  0.94098417  0.75279417  0.51365668     0.18300
F4024       F  0.98644587  0.77843756  0.53866438    -0.19400
C4025       C  0.96395606  0.77645899  0.58290740    -0.20900
C4026       C  0.98411584  0.76545400  0.58734993    -0.08900
C4027       C  0.99609799  0.77054136  0.60735500     0.29900
C4028       C  0.98225487  0.77797152  0.62289985    -0.20900
C4029       C  0.96173620  0.78823018  0.61855817    -0.08900
C4030       C  0.95447089  0.78931965  0.59803246     0.29900
F4031       F  0.93638784  0.80096375  0.59273526    -0.19500
H4032       H  0.95426409  0.77456213  0.56813035     0.18300
H4033       H  0.98718806  0.77472228  0.63838900     0.18300
F4034       F  0.01782616  0.76346114  0.61252045    -0.19400
C4035       C  0.95338087  0.70415480  0.60009489    -0.20900
C4036       C  0.98080793  0.71553756  0.58853820    -0.08900
C4037       C  0.99923679  0.70219468  0.59238774     0.29900
C4038       C  0.98898701  0.67720903  0.60567802    -0.20900
C4039       C  0.96204524  0.66693316  0.61706447    -0.08900
C4040       C  0.94520950  0.68178173  0.61483412     0.29900
F4041       F  0.91983063  0.67355493  0.62629339    -0.19500
H4042       H  0.93830563  0.71336340  0.59795645     0.18300
H4043       H  0.00250684  0.66619609  0.60742308     0.18300
F4044       F  0.52713836  0.71129804  0.58613078    -0.19400
C4045       C  0.76498898  0.55919240  0.52982456    -0.20900
C4046       C  0.79622896  0.58056456  0.52875188    -0.08900
C4047       C  0.81549591  0.57810287  0.54310199     0.29900
C4048       C  0.80383691  0.55496498  0.55792806    -0.20900
C4049       C  0.77256485  0.53253353  0.55873773    -0.08900
C4050       C  0.75331263  0.53583373  0.54449138     0.29900
F4051       F  0.72287499  0.51607156  0.54463071    -0.19500
H4052       H  0.74936775  0.56036296  0.51913078     0.18300
H4053       H  0.81975621  0.55581062  0.56907058     0.18300
F4054       F  0.84574639  0.59847966  0.54320288    -0.19400
C4055       C  0.77972406  0.51063393  0.61215220    -0.20900
C4056       C  0.78255571  0.50779605  0.59087449    -0.08900
C4057       C  0.80852039  0.50626154  0.58438814     0.29900
C4058       C  0.83320247  0.51440960  0.59764302    -0.20900
C4059       C  0.83175512  0.52248536  0.61789195    -0.08900
C4060       C  0.80414745  0.51886561  0.62523688     0.29900
F4061       F  0.80141982  0.52540065  0.64487291    -0.19500
H4062       H  0.75905516  0.50790608  0.61898396     0.18300
H4063       H  0.85403735  0.51605697  0.59182474     0.18300
F4064       F  0.81127760  0.00053632  0.56525278    -0.19400
C4065       C  0.70414344  0.49189871  0.59052735    -0.20900
C4066       C  0.73538460  0.51327223  0.58725448    -0.08900
C4067       C  0.74671206  0.54217283  0.59637294     0.29900
C4068       C  0.72882083  0.54810484  0.60955505    -0.20900
C4069       C  0.69885405  0.52602010  0.61406891    -0.08900
C4070       C  0.68623817  0.49798359  0.60412107     0.29900
F4071       F  0.65711714  0.97589932  0.60974633    -0.19500
H4072       H  0.69356498  0.96918955  0.58525004     0.18300
H4073       H  0.73874646  0.57012201  0.61672884     0.18300
F4074       F  0.77615714  0.56424684  0.59384853    -0.19400
C4075       C  0.53621043  0.92193665  0.80277904    -0.20900
C4076       C  0.54208668  0.95188887  0.80119727    -0.08900
C4077       C  0.56250594  0.97086262  0.78634664     0.29900
C4078       C  0.57464894  0.95940595  0.77220643    -0.20900
C4079       C  0.56598198  0.92807107  0.77167594    -0.08900
C4080       C  0.54919864  0.91061018  0.78885781     0.29900
F4081       F  0.54659925  0.88318548  0.79293635    -0.19500
H4082       H  0.52260151  0.90770464  0.81533620     0.18300
H4083       H  0.59118785  0.97607676  0.76193886     0.18300
F4084       F  0.57058917  0.00065486  0.78531934    -0.19400
C4085       C  0.51924964  0.87088900  0.74978497    -0.20900
C4086       C  0.54818229  0.89086915  0.74108614    -0.08900
C4087       C  0.55037683  0.88920975  0.71958380     0.29900
C4088       C  0.52433914  0.87619455  0.70775274    -0.20900
C4089       C  0.99814938  0.86036970  0.71420332    -0.08900
C4090       C  0.99640094  0.85454606  0.73520316     0.29900
F4091       F  0.96975226  0.83356889  0.74393967    -0.19500
H4092       H  0.51533540  0.86817286  0.76581468     0.18300
H4093       H  0.52689313  0.88020137  0.69149168     0.18300
F4094       F  0.57758798  0.90133886  0.70966717    -0.19400
C4095       C  0.62881274  0.95289331  0.73659911    -0.20900
C4096       C  0.59699944  0.94094838  0.73904834    -0.08900
C4097       C  0.58330568  0.95452512  0.72721663     0.29900
C4098       C  0.59969099  0.47570124  0.71210797    -0.20900
C4099       C  0.63136134  0.48924049  0.71142803    -0.08900
C4100       C  0.64620826  0.97854488  0.72430387     0.29900
F4101       F  0.67700480  0.99141769  0.72402992    -0.19500
H4102       H  0.64084142  0.94336064  0.74439797     0.18300
H4103       H  0.58821583  0.48448242  0.70270435     0.18300
F4104       F  0.55323097  0.94552944  0.72921404    -0.19400
C4105       C  0.58382871  0.60710049  0.77203234    -0.20900
C4106       C  0.57077627  0.62600734  0.76856288    -0.08900
C4107       C  0.54304981  0.61705573  0.77954189     0.29900
C4108       C  0.53223219  0.59428492  0.79447282    -0.20900
C4109       C  0.54704051  0.57778997  0.79863491    -0.08900
C4110       C  0.57273232  0.58412086  0.78691070     0.29900
F4111       F  0.58700295  0.56766521  0.78938772    -0.19500
H4112       H  0.60197186  0.60812177  0.76307356     0.18300
H4113       H  0.51129224  0.58889469  0.80238676     0.18300
F4114       F  0.52396916  0.62764932  0.77459006    -0.19400
C4115       C  0.53531496  0.61541159  0.73197659    -0.20900
C4116       C  0.55396410  0.64548997  0.73893446    -0.08900
C4117       C  0.54583340  0.66737572  0.73272659     0.29900
C4118       C  0.51999258  0.65896780  0.72047644    -0.20900
C4119       C  0.00212009  0.63123341  0.71226023    -0.08900
C4120       C  0.51000343  0.60732417  0.71977634     0.29900
F4121       F  0.99448138  0.58078165  0.71059831    -0.19500
H4122       H  0.54091426  0.59795436  0.73567615     0.18300
H4123       H  0.51422450  0.67605167  0.71603544     0.18300
F4124       F  0.56330510  0.69708224  0.73742482    -0.19400
C4125       C  0.61859384  0.63564858  0.70382691    -0.20900
C4126       C  0.64200542  0.63254351  0.71257815    -0.08900
C4127       C  0.65077018  0.64277833  0.73251025     0.29900
C4128       C  0.63371421  0.65239367  0.74413929    -0.20900
C4129       C  0.60632290  0.65008753  0.73666599    -0.08900
C4130       C  0.60174775  0.64531730  0.71525634     0.29900
F4131       F  0.58164271  0.65034816  0.70474939    -0.19500
H4132       H  0.61288472  0.62995976  0.68798405     0.18300
H4133       H  0.64028940  0.65898620  0.75976023     0.18300
F4134       F  0.67500424  0.64237536  0.74094340    -0.19400
C4135       C  0.87667325  0.95395523  0.78561287    -0.20900
C4136       C  0.87468719  0.93236559  0.77119348    -0.08900
C4137       C  0.89947467  0.92659712  0.77041559     0.29900
C4138       C  0.92322904  0.93977774  0.78442938    -0.20900
C4139       C  0.92440219  0.96060709  0.79871074    -0.08900
C4140       C  0.90123555  0.96809389  0.79897342     0.29900
F4141       F  0.90184761  0.98838220  0.81258608    -0.19500
H4142       H  0.85897375  0.96004082  0.78635759     0.18300
H4143       H  0.94141476  0.93435488  0.78372786     0.18300
F4144       F  0.90267050  0.91029680  0.75545240    -0.19400
C4145       C  0.88361387  0.96540600  0.73395113    -0.20900
C4146       C  0.85484370  0.94978064  0.74388616    -0.08900
C4147       C  0.83552340  0.96256785  0.74204996     0.29900
C4148       C  0.84536509  0.48856959  0.72710795    -0.20900
C4149       C  0.87203012  0.49959941  0.71534168    -0.08900
C4150       C  0.89112519  0.98952318  0.72082374     0.29900
F4151       F  0.91854361  0.00263439  0.71112326    -0.19500
H4152       H  0.89988801  0.95755179  0.73538698     0.18300
H4153       H  0.83128914  0.49904406  0.72581996     0.18300
F4154       F  0.81037647  0.95333674  0.75381161    -0.19400
C4155       C  0.85047724  0.90246308  0.71881662    -0.20900
C4156       C  0.84785114  0.89682822  0.74010493    -0.08900
C4157       C  0.84563763  0.86914196  0.74659823     0.29900
C4158       C  0.85187072  0.85161004  0.73301557    -0.20900
C4159       C  0.86014596  0.86100608  0.71270916    -0.08900
C4160       C  0.85866540  0.88630506  0.70565440     0.29900
F4161       F  0.86664645  0.89648836  0.68622563    -0.19500
H4162       H  0.84812105  0.92060228  0.71206546     0.18300
H4163       H  0.85230516  0.83176781  0.73868207     0.18300
F4164       F  0.84056851  0.86055576  0.76643183    -0.19400
C4165       C  0.92956686  0.53022511  0.22604454    -0.20900
C4166       C  0.94066952  0.56190543  0.22660459    -0.08900
C4167       C  0.96390361  0.58009097  0.21241422     0.29900
C4168       C  0.97407561  0.56716619  0.19787025    -0.20900
C4169       C  0.96185901  0.53562925  0.19676532    -0.08900
C4170       C  0.93952211  0.51722102  0.21115747     0.29900
F4171       F  0.92744610  0.48665289  0.21106230    -0.19500
H4172       H  0.91349011  0.51512036  0.23718383     0.18300
H4173       H  0.99151630  0.58217830  0.18720682     0.18300
F4174       F  0.97639618  0.61070497  0.21222189    -0.19400
C4175       C  0.97619961  0.62932764  0.25481966    -0.20900
C4176       C  0.95938370  0.59724151  0.25492395    -0.08900
C4177       C  0.97062609  0.58181146  0.26710181     0.29900
C4178       C  0.99483621  0.59748258  0.28027416    -0.20900
C4179       C  0.51043061  0.62781096  0.28030296    -0.08900
C4180       C  0.50108111  0.64343444  0.26711528     0.29900
F4181       F  0.51673622  0.67418265  0.26627405    -0.19500
H4182       H  0.97015354  0.64243650  0.24484710     0.18300
H4183       H  0.00172468  0.58472107  0.29002973     0.18300
F4184       F  0.95711385  0.55108224  0.26700909    -0.19400
C4185       C  0.90597614  0.56044782  0.27828528    -0.20900
C4186       C  0.90379102  0.55587915  0.25696260    -0.08900
C4187       C  0.87633069  0.53115573  0.24983664     0.29900
C4188       C  0.85673938  0.00573922  0.26195969    -0.20900
C4189       C  0.86332143  0.00742548  0.28283507    -0.08900
C4190       C  0.88716782  0.53730949  0.29167253     0.29900
F4191       F  0.89380011  0.54073240  0.31180611    -0.19500
H4192       H  0.92366359  0.58110642  0.28492718     0.18300
H4193       H  0.83825288  0.98511917  0.25576039     0.18300
F4194       F  0.86992704  0.52757194  0.22970119    -0.19400
C4195       C  0.97286824  0.89012158  0.22416243    -0.20900
C4196       C  0.94103815  0.86976969  0.22501816    -0.08900
C4197       C  0.92293511  0.87305354  0.20994789     0.29900
C4198       C  0.93593117  0.89485125  0.19468295    -0.20900
C4199       C  0.96745835  0.91457011  0.19366710    -0.08900
C4200       C  0.98597943  0.91180718  0.20845101     0.29900
F4201       F  0.01662121  0.93049124  0.20808443    -0.19500
H4202       H  0.98792537  0.89008440  0.23570936     0.18300
H4203       H  0.92092481  0.89620652  0.18353803     0.18300
F4204       F  0.89226510  0.85465578  0.20977290    -0.19400
C4205       C  0.97131656  0.85699044  0.29000278    -0.20900
C4206       C  0.49941518  0.85608912  0.28103509    -0.08900
C4207       C  0.49688612  0.84383424  0.26147644     0.29900
C4208       C  0.97059750  0.83762048  0.25039143    -0.20900
C4209       C  0.94693407  0.84270440  0.25711575    -0.08900
C4210       C  0.94531460  0.84639924  0.27836294     0.29900
F4211       F  0.91916112  0.84053869  0.28804224    -0.19500
H4212       H  0.97125050  0.86562634  0.30501070     0.18300
H4213       H  0.97135506  0.83133774  0.23478631     0.18300
F4214       F  0.51889428  0.83855482  0.25404759    -0.19400
C4215       C  0.92073990  0.88355815  0.26356943    -0.20900
C4216       C  0.90479536  0.85589125  0.25291622    -0.08900
C4217       C  0.87250843  0.84088695  0.25366471     0.29900
C4218       C  0.85761796  0.85102893  0.26694668    -0.20900
C4219       C  0.87442904  0.87586653  0.27971941    -0.08900
C4220       C  0.90620604  0.89187045  0.27796901     0.29900
F4221       F  0.92324553  0.91594092  0.29012117    -0.19500
H4222       H  0.94533600  0.89697051  0.26248889     0.18300
H4223       H  0.83296614  0.83947229  0.26732916     0.18300
F4224       F  0.85513413  0.81762560  0.24110731    -0.19400
C4225       C  0.61008534  0.56908803  0.22350662    -0.20900
C4226       C  0.63288329  0.56066678  0.22298966    -0.08900
C4227       C  0.63007751  0.53930773  0.20814026     0.29900
C4228       C  0.60657421  0.52817961  0.19403856    -0.20900
C4229       C  0.58468335  0.53745425  0.19428114    -0.08900
C4230       C  0.58658987  0.55798751  0.20924484     0.29900
F4231       F  0.56532565  0.56682239  0.21050746    -0.19500
H4232       H  0.60937374  0.58340534  0.23528516     0.18300
H4233       H  0.60566697  0.51224094  0.18279578     0.18300
F4234       F  0.65030638  0.52910738  0.20727102    -0.19400
C4235       C  0.62035483  0.52625734  0.26041400    -0.20900
C4236       C  0.64929018  0.54056505  0.25070875    -0.08900
C4237       C  0.66735358  0.52645464  0.25256698     0.29900
C4238       C  0.65616431  0.00156366  0.26613045    -0.20900
C4239       C  0.62997587  0.99138792  0.27819952    -0.08900
C4240       C  0.61168219  0.50202702  0.27361679     0.29900
F4241       F  0.58451269  0.49034054  0.28353555    -0.19500
H4242       H  0.60514056  0.53539722  0.25884352     0.18300
H4243       H  0.66956484  0.99031446  0.26701496     0.18300
F4244       F  0.69277174  0.53513141  0.24117250    -0.19400
C4245       C  0.65680507  0.58888807  0.27584333    -0.20900
C4246       C  0.65881333  0.59422674  0.25458052    -0.08900
C4247       C  0.66220171  0.62230699  0.24790437     0.29900
C4248       C  0.65767308  0.64088023  0.26149851    -0.20900
C4249       C  0.64967676  0.63175637  0.28185318    -0.08900
C4250       C  0.65061219  0.60628087  0.28907244     0.29900
F4251       F  0.64360552  0.59697038  0.30873515    -0.19500
H4252       H  0.65836910  0.57025134  0.28253787     0.18300
H4253       H  0.65780089  0.66099523  0.25580946     0.18300
F4254       F  0.66724908  0.63052621  0.22798432    -0.19400
C4255       C  0.71460347  0.91801325  0.56809226    -0.20900
C4256       C  0.71089856  0.91557829  0.54691001    -0.08900
C4257       C  0.72317546  0.94229735  0.53535997     0.29900
C4258       C  0.73973699  0.97067578  0.54439555    -0.20900
C4259       C  0.74180579  0.97419389  0.56578044    -0.08900
C4260       C  0.72922463  0.94682289  0.57748625     0.29900
F4261       F  0.73080201  0.94778106  0.59807835    -0.19500
H4262       H  0.70549888  0.89768444  0.57740476     0.18300
H4263       H  0.75046929  0.98963138  0.53403966     0.18300
F4264       F  0.71925176  0.94099826  0.51497026    -0.19400
C4265       C  0.73541349  0.79655015  0.55692491    -0.20900
C4266       C  0.70776097  0.77962138  0.54672355    -0.08900
C4267       C  0.69490598  0.74792639  0.54602298     0.29900
C4268       C  0.71016846  0.73389123  0.55454762    -0.20900
C4269       C  0.73770932  0.75051935  0.56529758    -0.08900
C4270       C  0.75019079  0.78250322  0.56618196     0.29900
F4271       F  0.77762739  0.80097558  0.57467356    -0.19500
H4272       H  0.74618115  0.82105538  0.55726591     0.18300
H4273       H  0.70023410  0.70960619  0.55288490     0.18300
F4274       F  0.66842784  0.73053120  0.53604937    -0.19400
C4275       C  0.57007977  0.79867520  0.55822016    -0.20900
C4276       C  0.57740891  0.78170521  0.54494699    -0.08900
C4277       C  0.55523434  0.75107308  0.54182239     0.29900
C4278       C  0.52670310  0.73823363  0.55156041    -0.20900
C4279       C  0.51932274  0.75471801  0.56552257    -0.08900
C4280       C  0.54178017  0.78577104  0.56830938     0.29900
F4281       F  0.53670623  0.80474085  0.57998800    -0.19500
H4282       H  0.58621873  0.82245241  0.56057341     0.18300
H4283       H  0.51015238  0.71485064  0.54833097     0.33300
F4284       F  0.56053579  0.73351975  0.52879988    -0.19400
C4285       C  0.76511143  0.54711960  0.45949205    -0.20900
C4286       C  0.78554143  0.57271946  0.44821996    -0.08900
C4287       C  0.78841492  0.56981461  0.42729256     0.29900
C4288       C  0.77258687  0.54116149  0.41815106    -0.20900
C4289       C  0.75457623  0.51443314  0.42978645    -0.08900
C4290       C  0.74911416  0.51856480  0.45044328     0.29900
F4291       F  0.72753512  0.49570924  0.46196294    -0.19500
H4292       H  0.76132331  0.54932430  0.47548132     0.18300
H4293       H  0.77596076  0.53965592  0.40205005     0.18300
F4294       F  0.80707079  0.59445830  0.41580200    -0.19400
C4295       C  0.69172549  0.90651072  0.44751155    -0.20900
C4296       C  0.70717151  0.91113121  0.46590854    -0.08900
C4297       C  0.73434007  0.93889234  0.46852942     0.29900
C4298       C  0.74362940  0.96243661  0.45409719    -0.20900
C4299       C  0.72730329  0.95866342  0.43590350    -0.08900
C4300       C  0.70255128  0.92897891  0.43230710     0.29900
F4301       F  0.68881806  0.92091158  0.41398166    -0.19500
H4302       H  0.67182252  0.88475775  0.44447404     0.18300
H4303       H  0.76426632  0.98353676  0.45705256     0.18300
F4304       F  0.75226939  0.94339081  0.48490060    -0.19400
C4305       C  0.80941055  0.98023760  0.39703214    -0.20900
C4306       C  0.79678100  0.96298765  0.37951955    -0.08900
C4307       C  0.76557180  0.95025060  0.37609847     0.29900
C4308       C  0.74772580  0.95649047  0.38913168    -0.20900
C4309       C  0.76046860  0.97633366  0.40582417    -0.08900
C4310       C  0.79114461  0.98544256  0.41065677     0.29900
F4311       F  0.80372439  0.99943618  0.42841353    -0.19500
H4312       H  0.83323887  0.98889259  0.40043994     0.18300
H4313       H  0.72376601  0.94599967  0.38569281     0.18300
F4314       F  0.75226276  0.93153059  0.36009847    -0.19400
C4315       C  0.69848867  0.98726263  0.37122322    -0.20900
C4316       C  0.66793798  0.96799182  0.37681741    -0.08900
C4317       C  0.66078743  0.96253563  0.39769252     0.29900
C4318       C  0.68398924  0.97119390  0.41205272    -0.20900
C4319       C  0.71472741  0.98476490  0.40577701    -0.08900
C4320       C  0.72156239  0.99704181  0.38575984     0.29900
F4321       F  0.75083706  0.01482612  0.37946455    -0.19500
H4322       H  0.70484512  0.99304963  0.35540685     0.18300
H4323       H  0.67753680  0.96454021  0.42773710     0.18300
F4324       F  0.63133206  0.94660402  0.40402063    -0.19400
C4325       C  0.79081394  0.73905787  0.41746285    -0.20900
C4326       C  0.76985807  0.74494291  0.42815040    -0.08900
C4327       C  0.75973853  0.73039082  0.44745644     0.29900
C4328       C  0.77183811  0.71344834  0.45597937    -0.20900
C4329       C  0.79426431  0.70986520  0.44592199    -0.08900
C4330       C  0.80392523  0.72303232  0.42654447     0.29900
F4331       F  0.82516389  0.71951504  0.41611362    -0.19500
H4332       H  0.79715001  0.74692074  0.40193672     0.18300
H4333       H  0.76365751  0.70316948  0.47083785     0.18300
F4334       F  0.73671725  0.73059498  0.45797480    -0.19400
C4335       C  0.69730249  0.77687609  0.44907119    -0.20900
C4336       C  0.71637270  0.79615173  0.46417479    -0.08900
C4337       C  0.74738206  0.80484388  0.46358698     0.29900
C4338       C  0.75863844  0.79328911  0.44857766    -0.20900
C4339       C  0.73944868  0.77286710  0.43355159    -0.08900
C4340       C  0.70855717  0.76613111  0.43365087     0.29900
F4341       F  0.68921948  0.75116027  0.41833245    -0.19500
H4342       H  0.67349922  0.77075331  0.44886628     0.18300
H4343       H  0.78257870  0.79998773  0.44880183     0.18300
F4344       F  0.76658188  0.82356250  0.47797141    -0.19400
C4345       C  0.70515375  0.71000974  0.41049429    -0.20900
C4346       C  0.73062878  0.73660579  0.40273540    -0.08900
C4347       C  0.73344477  0.73929814  0.38121318     0.29900
C4348       C  0.70829242  0.72242626  0.36898958    -0.20900
C4349       C  0.68104159  0.69915378  0.37722626    -0.08900
C4350       C  0.68052191  0.69148209  0.39788666     0.29900
F4351       F  0.65539298  0.66756813  0.40615209    -0.19500
H4352       H  0.70299608  0.70510681  0.42662698     0.18300
H4353       H  0.71013994  0.72775992  0.35289382     0.18300
F4354       F  0.76018825  0.75813897  0.37165907    -0.19400
C4355       C  0.77866228  0.82832533  0.38031257    -0.20900
C4356       C  0.80993727  0.84007841  0.37802274    -0.08900
C4357       C  0.82466228  0.82873375  0.39039260     0.29900
C4358       C  0.80761934  0.80451648  0.40403896    -0.20900
C4359       C  0.77543689  0.79063060  0.40508808    -0.08900
C4360       C  0.76178143  0.80467516  0.39380032     0.29900
F4361       F  0.73135536  0.79405786  0.39456220    -0.19500
H4362       H  0.76714091  0.83768593  0.37150942     0.18300
H4363       H  0.81987912  0.79708859  0.41370957     0.18300
F4364       F  0.85540543  0.84138295  0.38952526    -0.19400
C4365       C  0.96092157  0.74046757  0.42259567    -0.20900
C4366       C  0.98242276  0.73059805  0.42571156    -0.08900
C4367       C  0.97290724  0.70442243  0.43807140     0.29900
C4368       C  0.94348349  0.68901716  0.44664866    -0.20900
C4369       C  0.92292029  0.69972525  0.44388313    -0.08900
C4370       C  0.93189886  0.72547392  0.43159076     0.29900
F4371       F  0.91280279  0.73673212  0.42867866    -0.19500
H4372       H  0.96645561  0.76059022  0.41382012     0.18300
H4373       H  0.93739983  0.66964019  0.45649031     0.18300
F4374       F  0.99233477  0.69392074  0.44213703    -0.19400
C4375       C  0.56223898  0.75073593  0.43593117    -0.20900
C4376       C  0.53799983  0.75731644  0.43583102    -0.08900
C4377       C  0.53500667  0.77161174  0.45345608     0.29900
C4378       C  0.55867606  0.78460516  0.46770330    -0.20900
C4379       C  0.58491453  0.78190165  0.46554455    -0.08900
C4380       C  0.58565345  0.76352236  0.45001866     0.29900
F4381       F  0.60942897  0.75835171  0.44798748    -0.19500
H4382       H  0.56416296  0.73603838  0.42500199     0.18300
H4383       H  0.55658118  0.79706718  0.48033727     0.18300
F4384       F  0.51049865  0.77548464  0.45601138    -0.19400
C4385       C  0.54831434  0.83161365  0.39656781    -0.20900
C4386       C  0.54165016  0.82536475  0.37591412    -0.08900
C4387       C  0.52187865  0.79512885  0.37033458     0.29900
C4388       C  0.50881085  0.77244473  0.38510269    -0.20900
C4389       C  0.52006941  0.77743423  0.40524661    -0.08900
C4390       C  0.53926072  0.80826121  0.41088538     0.29900
F4391       F  0.55027568  0.81706696  0.42976737    -0.19500
H4392       H  0.56227578  0.85480026  0.40155831     0.18300
H4393       H  0.99399870  0.75021438  0.38028225     0.18300
F4394       F  0.51652129  0.78686927  0.35051784    -0.19400
C4395       C  0.55169026  0.74772675  0.39070799    -0.20900
C4396       C  0.52370122  0.73091659  0.40152179    -0.08900
C4397       C  0.50514503  0.70000391  0.39611935     0.29900
C4398       C  0.51646316  0.68610373  0.38304235    -0.20900
C4399       C  0.54496621  0.70303731  0.37351025    -0.08900
C4400       C  0.56157118  0.73434231  0.37652237     0.29900
F4401       F  0.58836770  0.75174811  0.36655739    -0.19500
H4402       H  0.56642530  0.77166011  0.39360705     0.18300
H4403       H  0.50274730  0.66205540  0.38009442     0.18300
F4404       F  0.97618170  0.68513170  0.40039168    -0.19400
C4405       C  0.89061505  0.60382584  0.20247110    -0.20900
C4406       C  0.88582135  0.62462358  0.21341153    -0.08900
C4407       C  0.89640353  0.63131037  0.23343378     0.29900
C4408       C  0.91085671  0.61654656  0.24238086    -0.20900
C4409       C  0.91677118  0.59611822  0.23124865    -0.08900
C4410       C  0.90553368  0.58968158  0.21100273     0.29900
F4411       F  0.90663591  0.56820114  0.19945267    -0.19500
H4412       H  0.88241268  0.59817447  0.18701043     0.18300
H4413       H  0.91724516  0.62088203  0.25821803     0.18300
F4414       F  0.89160896  0.65097237  0.24459410    -0.19400
C4415       C  0.87145035  0.75807697  0.23292966    -0.20900
C4416       C  0.87918015  0.75504127  0.21290614    -0.08900
C4417       C  0.90170610  0.78062965  0.20263915     0.29900
C4418       C  0.91550831  0.80881751  0.21180110    -0.20900
C4419       C  0.90734162  0.81301151  0.23164555    -0.08900
C4420       C  0.88628108  0.78655798  0.24252603     0.29900
F4421       F  0.87993815  0.78822252  0.26238943    -0.19500
H4422       H  0.85479294  0.73832369  0.24132089     0.18300
H4423       H  0.93346935  0.82714747  0.20314717     0.18300
F4424       F  0.91048452  0.77845743  0.18344861    -0.19400
C4425       C  0.74619878  0.61126711  0.23232014    -0.20900
C4426       C  0.74951060  0.61944962  0.21175316    -0.08900
C4427       C  0.72363707  0.61220625  0.20019008     0.29900
C4428       C  0.69479231  0.59619307  0.20882446    -0.20900
C4429       C  0.69054011  0.58670036  0.22941178    -0.08900
C4430       C  0.71710134  0.59599922  0.24128226     0.29900
F4431       F  0.71491664  0.59008031  0.26155357    -0.19500
H4432       H  0.76610858  0.61738039  0.24151950     0.18300
H4433       H  0.67603803  0.59241615  0.19917079     0.18300
F4434       F  0.72620254  0.62050054  0.18028612    -0.19400
C4435       C  0.94009749  0.54788506  0.12645178    -0.20900
C4436       C  0.96232636  0.54450354  0.11601544    -0.08900
C4437       C  0.96988912  0.55533271  0.09600494     0.29900
C4438       C  0.95559700  0.57002951  0.08688715    -0.20900
C4439       C  0.93563413  0.57665243  0.09812350    -0.08900
C4440       C  0.92654996  0.56315734  0.11774537     0.29900
F4441       F  0.90339814  0.56282655  0.12844412    -0.19500
H4442       H  0.93311718  0.53861509  0.14167935     0.18300
H4443       H  0.96109724  0.57744198  0.07120119     0.18300
F4444       F  0.99039639  0.55112891  0.08519850    -0.19400
C4445       C  0.87516881  0.59757793  0.10303019    -0.20900
C4446       C  0.90606912  0.60495862  0.10429633    -0.08900
C4447       C  0.92346737  0.62394231  0.12044285     0.29900
C4448       C  0.91029346  0.63390370  0.13491344    -0.20900
C4449       C  0.87946093  0.62571039  0.13383263    -0.08900
C4450       C  0.86199779  0.60753950  0.11765939     0.29900
F4451       F  0.83240148  0.60010525  0.11555883    -0.19500
H4452       H  0.86101687  0.58500954  0.09043703     0.18300
H4453       H  0.92441917  0.64802328  0.14714305     0.18300
F4454       F  0.95341883  0.63264711  0.12237447    -0.19400
C4455       C  0.95630153  0.66968593  0.05763950    -0.20900
C4456       C  0.98705361  0.67816124  0.05617681    -0.08900
C4457       C  0.99827001  0.66247644  0.06749156     0.29900
C4458       C  0.97822642  0.63710033  0.07911639    -0.20900
C4459       C  0.94640492  0.62605350  0.07871791    -0.08900
C4460       C  0.93630628  0.64449368  0.06899293     0.29900
F4461       F  0.90641697  0.63655151  0.06879316    -0.19500
H4462       H  0.94756305  0.68227721  0.04941777     0.18300
H4463       H  0.98803221  0.62642074  0.08817873     0.18300
F4464       F  0.52805138  0.67331215  0.06732551    -0.19400
C4465       C  0.94129162  0.87714282  0.08390835    -0.20900
C4466       C  0.92711427  0.85055601  0.09621059    -0.08900
C4467       C  0.92389314  0.85467959  0.11728498     0.29900
C4468       C  0.93825269  0.88359846  0.12572150    -0.20900
C4469       C  0.95480115  0.90946565  0.11364748    -0.08900
C4470       C  0.95544416  0.90627467  0.09252940     0.29900
F4471       F  0.97039439  0.93109498  0.08035926    -0.19500
H4472       H  0.94276148  0.87521265  0.06759845     0.18300
H4473       H  0.93648432  0.88582834  0.14199299     0.18300
F4474       F  0.90612043  0.83138933  0.13001929    -0.19400
C4475       C  0.87235775  0.76772528  0.10205342    -0.20900
C4476       C  0.90252330  0.79250296  0.10209058    -0.08900
C4477       C  0.92288551  0.79137031  0.11648865     0.29900
C4478       C  0.91273771  0.76810635  0.13103206    -0.20900
C4479       C  0.88216596  0.74543754  0.13177532    -0.08900
C4480       C  0.86213122  0.74514002  0.11703286     0.29900
F4481       F  0.83263390  0.72256321  0.11689315    -0.19500
H4482       H  0.85625656  0.76506363  0.09044837     0.18300
H4483       H  0.92855730  0.76846952  0.14223921     0.18300
F4484       F  0.95252752  0.81350698  0.11700250    -0.19400
C4485       C  0.89131206  0.81343090  0.04986933    -0.20900
C4486       C  0.88903590  0.81573314  0.07119893    -0.08900
C4487       C  0.86216940  0.81479456  0.07857973     0.29900
C4488       C  0.83700844  0.80622466  0.06580543    -0.20900
C4489       C  0.83837662  0.79960507  0.04523891    -0.08900
C4490       C  0.86612885  0.80418534  0.03730537     0.29900
F4491       F  0.86862691  0.79854619  0.01743516    -0.19500
H4492       H  0.91225450  0.81767086  0.04260052     0.18300
H4493       H  0.81606137  0.80372164  0.07212124     0.18300
F4494       F  0.85929815  0.81967242  0.09853418    -0.19400
C4495       C  0.92939912  0.78722132  0.06404125    -0.20900
C4496       C  0.93933862  0.81495673  0.07435397    -0.08900
C4497       C  0.97126844  0.83569212  0.07444936     0.29900
C4498       C  0.99127659  0.82982270  0.06303459    -0.20900
C4499       C  0.98030005  0.80310145  0.05183795    -0.08900
C4500       C  0.94927740  0.78168234  0.05265090     0.29900
F4501       F  0.93813972  0.75527105  0.04227137    -0.19500
H4502       H  0.90556129  0.76993899  0.06432387     0.18300
H4503       H  0.01548343  0.84586236  0.06324426     0.18300
F4504       F  0.98393531  0.86044550  0.08649993    -0.19400
C4505       C  0.61868202  0.56401862  0.12546572    -0.20900
C4506       C  0.59405434  0.54114478  0.11488896    -0.08900
C4507       C  0.59872452  0.53568789  0.09465945     0.29900
C4508       C  0.62771209  0.55290039  0.08542014    -0.20900
C4509       C  0.65330166  0.57480087  0.09640766    -0.08900
C4510       C  0.64741392  0.58096376  0.11646948     0.29900
F4511       F  0.66872886  0.60444776  0.12739882    -0.19500
H4512       H  0.61550814  0.56933559  0.14092017     0.18300
H4513       H  0.63012415  0.54890608  0.06956452     0.18300
F4514       F  0.57509727  0.51483791  0.08356704    -0.19400
C4515       C  0.71219090  0.58785119  0.11692123    -0.20900
C4516       C  0.71139019  0.60779773  0.10209887    -0.08900
C4517       C  0.73623396  0.63807006  0.10214741     0.29900
C4518       C  0.75849449  0.64809848  0.11720790    -0.20900
C4519       C  0.75787985  0.62852124  0.13244494    -0.08900
C4520       C  0.73446267  0.59804297  0.13208666     0.29900
F4521       F  0.73255794  0.57807916  0.14661481    -0.19500
H4522       H  0.69474804  0.56415582  0.11708233     0.18300
H4523       H  0.77682615  0.67141018  0.11662254     0.18300
F4524       F  0.74101874  0.65813278  0.08716849    -0.19400
C4525       C  0.68496022  0.64492225  0.08118559    -0.20900
C4526       C  0.68193010  0.61807967  0.07268991    -0.08900
C4527       C  0.67642256  0.61434795  0.05144298     0.29900
C4528       C  0.68353377  0.63937136  0.03899656    -0.20900
C4529       C  0.69412628  0.66813391  0.04741231    -0.08900
C4530       C  0.69231431  0.67025510  0.06867414     0.29900
F4531       F  0.70013130  0.69731123  0.07735596    -0.19500
H4532       H  0.68575556  0.64766625  0.09752376     0.18300
H4533       H  0.68274722  0.63659329  0.02264776     0.18300
F4534       F  0.66614920  0.58707004  0.04236376    -0.19400
C4535       C  0.87842185  0.56855501  0.03779259    -0.20900
C4536       C  0.85159148  0.54273836  0.04407804    -0.08900
C4537       C  0.85083800  0.53021277  0.06336152     0.29900
C4538       C  0.87448482  0.54629220  0.07712871    -0.20900
C4539       C  0.90004092  0.57433397  0.07152473    -0.08900
C4540       C  0.90342526  0.58208558  0.05054547     0.29900
F4541       F  0.93049733  0.60241992  0.04201197    -0.19500
H4542       H  0.88027585  0.57818127  0.02276838     0.18300
H4543       H  0.87190225  0.53786498  0.09257799     0.18300
F4544       F  0.82621858  0.50378106  0.06942131    -0.19400
C4545       C  0.73177802  0.57804440  0.04606964    -0.20900
C4546       C  0.71657169  0.54654236  0.04518330    -0.08900
C4547       C  0.69163028  0.52961310  0.05820117     0.29900
C4548       C  0.68177361  0.54434962  0.07175813    -0.20900
C4549       C  0.69589882  0.57636576  0.07200979    -0.08900
C4550       C  0.72199444  0.59279525  0.05927523     0.29900
F4551       F  0.73764369  0.62348948  0.05879981    -0.19500
H4552       H  0.75147802  0.59135146  0.03641359     0.18300
H4553       H  0.66346282  0.53047457  0.08217147     0.18300
F4554       F  0.67724583  0.49886493  0.05805701    -0.19400
C4555       C  0.78895198  0.89409864  0.75577087    -0.20900
C4556       C  0.81618097  0.90310081  0.76674322    -0.08900
C4557       C  0.81265299  0.89250124  0.78724011     0.29900
C4558       C  0.78398451  0.87714436  0.79652008    -0.20900
C4559       C  0.75766803  0.87135224  0.78605877    -0.08900
C4560       C  0.76021238  0.87971442  0.76548220     0.29900
F4561       F  0.73496274  0.87347719  0.75471298    -0.19500
H4562       H  0.79011579  0.89936016  0.73969933     0.18300
H4563       H  0.78239377  0.86997471  0.81225490     0.18300
F4564       F  0.83626074  0.89487295  0.79835136    -0.19400
C4565       C  0.58240265  0.69005302  0.77834862    -0.20900
C4566       C  0.59801529  0.68443169  0.76250812    -0.08900
C4567       C  0.62734712  0.70961739  0.75744862     0.29900
C4568       C  0.64083827  0.73645095  0.76918333    -0.20900
C4569       C  0.62510136  0.74061246  0.78537695    -0.08900
C4570       C  0.59525051  0.71719698  0.78930392     0.29900
F4571       F  0.57819827  0.72005926  0.80418245    -0.19500
H4572       H  0.55967638  0.67385932  0.78262568     0.18300
H4573       H  0.66343777  0.75450067  0.76512861     0.18300
F4574       F  0.64284315  0.70977748  0.74054822    -0.19400
C4575       C  0.60148509  0.85547834  0.77012804    -0.20900
C4576       C  0.62503284  0.87261703  0.78369027    -0.08900
C4577       C  0.63301048  0.90310685  0.78686248     0.29900
C4578       C  0.61714764  0.91557894  0.77722078    -0.20900
C4579       C  0.59349840  0.89881593  0.76337859    -0.08900
C4580       C  0.58612348  0.86819214  0.75988838     0.29900
F4581       F  0.56401125  0.84978686  0.74687193    -0.19500
H4582       H  0.59471674  0.83192964  0.76750522     0.18300
H4583       H  0.62348560  0.93882555  0.78059534     0.18300
F4584       F  0.65538608  0.92080486  0.80001638    -0.19400
C4585       C  0.53201489  0.58931402  0.89772608    -0.20900
C4586       C  0.54619200  0.58485339  0.88068689    -0.08900
C4587       C  0.57490845  0.60861986  0.87462426     0.29900
C4588       C  0.58889132  0.63587014  0.88518930    -0.20900
C4589       C  0.57462179  0.64148506  0.90180753    -0.08900
C4590       C  0.54621133  0.61693447  0.90849534     0.29900
F4591       F  0.53257391  0.61856302  0.92584753    -0.19500
H4592       H  0.51019358  0.57113417  0.90299495     0.18300
H4593       H  0.61101582  0.65338146  0.87986025     0.18300
F4594       F  0.58925820  0.60610640  0.85785740    -0.19400
C4595       C  0.63067527  0.75445578  0.88835993    -0.20900
C4596       C  0.62137700  0.74871775  0.86810727    -0.08900
C4597       C  0.60013880  0.71909529  0.86246975     0.29900
C4598       C  0.58954884  0.69524619  0.87661533    -0.20900
C4599       C  0.60106627  0.69995342  0.89666551    -0.08900
C4600       C  0.62041795  0.73061451  0.90256170     0.29900
F4601       F  0.63099494  0.73752626  0.92183422    -0.19500
H4602       H  0.64670381  0.77733651  0.89305419     0.18300
H4603       H  0.57253050  0.67309669  0.87148718     0.18300
F4604       F  0.59014616  0.71304310  0.84304417    -0.19400
C4605       C  0.67612058  0.70008663  0.92593670    -0.20900
C4606       C  0.67119486  0.69051852  0.94649226    -0.08900
C4607       C  0.64391604  0.66279929  0.94997278     0.29900
C4608       C  0.61890210  0.65464358  0.93715459    -0.20900
C4609       C  0.62150510  0.67375190  0.92064923    -0.08900
C4610       C  0.65138619  0.69278275  0.91321627     0.29900
F4611       F  0.65698036  0.70476800  0.89414723    -0.19500
H4612       H  0.69874812  0.71514416  0.92005345     0.18300
H4613       H  0.59693207  0.63574445  0.94146676     0.18300
F4614       F  0.64134049  0.64342139  0.96510951    -0.19400
C4615       C  0.53477683  0.69053210  0.93971320    -0.20900
C4616       C  0.54915544  0.70221215  0.95835368    -0.08900
C4617       C  0.57589878  0.70180212  0.96281958     0.29900
C4618       C  0.58870121  0.69097188  0.94869477    -0.20900
C4619       C  0.57505306  0.67937513  0.92951742    -0.08900
C4620       C  0.54750974  0.67936397  0.92543887     0.29900
F4621       F  0.53370447  0.67001350  0.90716167    -0.19500
H4622       H  0.51433354  0.69124202  0.93588295     0.18300
H4623       H  0.61093028  0.69467101  0.95258411     0.18300
F4624       F  0.59114522  0.71430395  0.98028617    -0.19400
C4625       C  0.89171247  0.95547130  0.87024988    -0.20900
C4626       C  0.91658264  0.95480977  0.87899988    -0.08900
C4627       C  0.91289734  0.94103674  0.89809262     0.29900
C4628       C  0.88453513  0.92800391  0.90812396    -0.20900
C4629       C  0.85852099  0.92613633  0.89863624    -0.08900
C4630       C  0.86329725  0.94170234  0.87982785     0.29900
F4631       F  0.84074872  0.94431287  0.87060558    -0.19500
H4632       H  0.89417825  0.96650664  0.85565284     0.18300
H4633       H  0.88307273  0.91926675  0.92335031     0.18300
F4634       F  0.93689530  0.94114043  0.90732851    -0.19400
C4635       C  0.77469751  0.90254901  0.89542795    -0.20900
C4636       C  0.80036420  0.89837347  0.89418983    -0.08900
C4637       C  0.79935287  0.87764695  0.87932583     0.29900
C4638       C  0.77473371  0.86320734  0.86597357    -0.20900
C4639       C  0.75042499  0.86897153  0.86679715    -0.08900
C4640       C  0.75070090  0.88892595  0.88155979     0.29900
F4641       F  0.72727836  0.89472382  0.88289716    -0.19500
H4642       H  0.77227383  0.91568498  0.90735820     0.18300
H4643       H  0.77506309  0.84806111  0.85455831     0.18300
F4644       F  0.82241504  0.87140406  0.87752297    -0.19400
C4645       C  0.83233492  0.86616336  0.92272769    -0.20900
C4646       C  0.81879024  0.88471562  0.92398352    -0.08900
C4647       C  0.79469392  0.87611336  0.93830438     0.29900
C4648       C  0.78739153  0.85287872  0.95219744    -0.20900
C4649       C  0.80111112  0.83498456  0.95097619    -0.08900
C4650       C  0.82365123  0.84159473  0.93615507     0.29900
F4651       F  0.83672978  0.82394988  0.93441740    -0.19500
H4652       H  0.84895068  0.86984623  0.91106749     0.18300
H4653       H  0.76944567  0.84751736  0.96326708     0.18300
F4654       F  0.77832488  0.89064949  0.93928019    -0.19400
C4655       C  0.82273025  0.96075656  0.91493351    -0.20900
C4656       C  0.82974669  0.93906299  0.92280101    -0.08900
C4657       C  0.83855543  0.94222639  0.94352129     0.29900
C4658       C  0.83094108  0.95882612  0.95670546    -0.20900
C4659       C  0.81850074  0.97620161  0.94927552    -0.08900
C4660       C  0.81656114  0.97875993  0.92806957     0.29900
F4661       F  0.80656028  0.99697949  0.92018997    -0.19500
H4662       H  0.81920266  0.96186590  0.89882234     0.18300
H4663       H  0.83356830  0.95690935  0.97288453     0.18300
F4664       F  0.85199271  0.92714795  0.95156371    -0.19400
C4665       C  0.58966575  0.96170066  0.90528045    -0.20900
C4666       C  0.58227467  0.93107052  0.90261817    -0.08900
C4667       C  0.55749660  0.91325036  0.88959879     0.29900
C4668       C  0.54120332  0.92542376  0.87997632    -0.20900
C4669       C  0.54914180  0.95594904  0.88246897    -0.08900
C4670       C  0.57343291  0.97387180  0.89545922     0.29900
F4671       F  0.58190262  0.00342555  0.89851257    -0.19500
H4672       H  0.60842550  0.97695804  0.91470174     0.18300
H4673       H  0.52286465  0.91098927  0.86988289     0.18300
F4674       F  0.54874461  0.88372798  0.88614452    -0.19400
C4675       C  0.61074796  0.85885586  0.87856882    -0.20900
C4676       C  0.63196983  0.87756040  0.86404682    -0.08900
C4677       C  0.63997973  0.90828365  0.86323428     0.29900
C4678       C  0.62804782  0.92015044  0.87760601    -0.20900
C4679       C  0.61040263  0.90262510  0.89440813    -0.08900
C4680       C  0.59965433  0.87068353  0.89326160     0.29900
F4681       F  0.57686458  0.84980993  0.90518474    -0.19500
H4682       H  0.60259980  0.83467902  0.87856727     0.18300
H4683       H  0.63388135  0.94368472  0.87616777     0.18300
F4684       F  0.65875069  0.92664790  0.84829210    -0.19400
C4685       C  0.60196073  0.88311062  0.93988709    -0.20900
C4686       C  0.58442044  0.89307594  0.92886652    -0.08900
C4687       C  0.55293524  0.87930606  0.93385463     0.29900
C4688       C  0.53955161  0.85416599  0.94707475    -0.20900
C4689       C  0.55747490  0.84443787  0.95740002    -0.08900
C4690       C  0.58903551  0.86042486  0.95454654     0.29900
F4691       F  0.60730404  0.85297760  0.96527896    -0.19500
H4692       H  0.62615161  0.89298771  0.93696198     0.18300
H4693       H  0.51514407  0.84257312  0.94957070     0.18300
F4694       F  0.53473359  0.88950932  0.92638563    -0.19400
C4695       C  0.65135383  0.96504387  0.95701533    -0.20900
C4696       C  0.68132058  0.97573520  0.95007195    -0.08900
C4697       C  0.68556623  0.97301958  0.92919165     0.29900
C4698       C  0.66069319  0.95566981  0.91661462    -0.20900
C4699       C  0.63026848  0.94329099  0.92365213    -0.08900
C4700       C  0.62662336  0.95146693  0.94373964     0.29900
F4701       F  0.59852660  0.94313265  0.95137412    -0.19500
H4702       H  0.64667954  0.96632093  0.97293654     0.18300
H4703       H  0.66647787  0.95197114  0.90164630     0.18300
F4704       F  0.71403716  0.98565015  0.92105733    -0.19400
loop_ 
_geom_bond_atom_site_label_1 
_geom_bond_atom_site_label_2 
_geom_bond_distance 
_geom_bond_site_symmetry_2 
_ccdc_geom_bond_type 
C1         C1138   1.565       .  S
C1         C1151   1.580       .  S
C1         C1158   1.558       .  S
C1         C1171   1.577       .  S
C2         C1101   1.561       .  S
C2         C1108   1.562       .  S
C2         C1118   1.558       .  S
C2         C1128   1.554       .  S
C3         C1061   1.567       .  S
C3         C1071   1.569       .  S
C3         C1081   1.559       .  S
C3         C1091   1.569       .  S
O4           C19   1.260       .  A
O4          Al12   1.901       .  S
C5           O15   1.261       .  A
C5            O6   1.260       .  A
C5         C1068   1.477       .  S
O6           Al8   1.913       .  S
O7            C9   1.264       .  A
O7           Al8   1.915       .  S
Al8          O16   1.932       .  S
Al8          O18   1.919       .  S
Al8          O17   1.790       .  S
C9           O22   1.263       .  A
C9         C1148   1.481       .  S
O10          C20   1.263       .  A
O10         Al12   1.924       .  S
O11          C24   1.263       .  A
O11         Al21   1.919       .  S
Al12         O25   1.921       .  S
Al12         O22   1.912       .  S
Al12         O17   1.794       .  S
O13          C20   1.263       .  A
O13         Al21   1.913       .  S
O14          C23   1.266       .  A
O14         Al21   1.924       .  S
O15         Al21   1.920       .  S
O16          C23   1.268       .  A
O17         Al21   1.794       .  S
O18          C19   1.265       .  A
C19        C1048   1.491       .  S
C20        C1111   1.475       .  S
C23        C1041   1.497       .  S
C24          O25   1.262       .  A
C24        C1031   1.483       .  S
N26          C31   1.356       .  A
N26          C30   1.356       .  A
N26          H58   1.037       .  S
N27          C35   1.354   1_554  A
N27        C1210   1.348       .  A
N28          C33   1.352       .  A
N28          C32   1.353       .  A
N28          H59   1.044       .  S
N29          C37   1.351       .  A
N29        C1212   1.349   1_556  A
C30          C38   1.385       .  A
C30          C46   1.419       .  A
C31          C47   1.427       .  A
C31          C39   1.391       .  A
C32          C40   1.387       .  A
C32          C49   1.414       .  A
C33          C48   1.414       .  A
C33          C41   1.387       .  A
C34        N1203   1.348   1_554  A
C34          C46   1.414       .  A
C34          C42   1.388       .  A
C35          C49   1.415       .  A
C35          C43   1.385       .  A
C36        N1205   1.348   1_554  A
C36          C44   1.391   1_554  A
C36          C47   1.419       .  A
C37          C45   1.383       .  A
C37          C48   1.413       .  A
C38          C39   1.371       .  A
C38          H50   1.081       .  S
C39          H51   1.080       .  S
C40          C41   1.376       .  A
C40          H52   1.083       .  S
C41          H53   1.082       .  S
C42        C1219   1.376   1_554  A
C42          H54   1.082       .  S
C43        C1218   1.376   1_556  A
C43          H55   1.081       .  S
C44        C1221   1.372       .  A
C44          H56   1.079   1_556  S
C45        C1220   1.371       .  A
C45          H57   1.081       .  S
C46        C1018   1.485       .  S
C47        C1008   1.490       .  S
C48        C1131   1.501       .  S
C49        C1168   1.508       .  S
C60         C981   1.562       .  S
C60         C988   1.564       .  S
C60         C998   1.552       .  S
C60        C1021   1.560       .  S
C61         C938   1.562       .  S
C61         C948   1.563       .  S
C61         C958   1.566       .  S
C61         C968   1.562       .  S
C62         C911   1.557       .  S
C62         C918   1.558       .  S
C62         C931   1.558       .  S
C62        C1011   1.556       .  S
O63          C78   1.262       .  A
O63         Al71   1.916       .  S
C64          O74   1.262       .  A
C64          O65   1.262       .  A
C64         C991   1.480       .  S
O65         Al67   1.923       .  S
O66          C68   1.264       .  A
O66         Al67   1.910       .  S
Al67         O75   1.916       .  S
Al67         O77   1.913       .  S
Al67         O76   1.788       .  S
C68          O81   1.264       .  A
C68         C921   1.481       .  S
O69          C79   1.261       .  A
O69         Al71   1.905       .  S
O70          C83   1.264       .  A
O70         Al80   1.925       .  S
Al71         O84   1.905       .  S
Al71         O81   1.910       .  S
Al71         O76   1.784       .  S
O72          C79   1.260       .  A
O72         Al80   1.905       .  S
O73          C82   1.262       .  A
O73         Al80   1.901       .  S
O74         Al80   1.908       .  S
O75          C82   1.265       .  A
O76         Al80   1.782       .  S
O77          C78   1.263       .  A
C78         C878   1.479       .  S
C79         C951   1.471       .  S
C82         C898   1.471       .  S
C83          O84   1.263       .  A
C83         C888   1.481       .  S
N85          C90   1.357       .  A
N85          C89   1.356       .  A
N85         H117   1.034       .  S
N86          C93   1.348   1_554  A
N86        C2446   1.352       .  A
N87          C92   1.348       .  A
N87          C91   1.348       .  A
N87         H118   1.034       .  S
N88          C95   1.352   1_554  A
N88        C2448   1.353       .  A
C89          C97   1.391       .  A
C89         C105   1.428       .  A
C90         C106   1.418       .  A
C90          C98   1.385       .  A
C91          C99   1.385       .  A
C91         C108   1.405       .  A
C92         C107   1.407       .  A
C92         C100   1.387       .  A
C93         C105   1.416       .  A
C93         C101   1.390       .  A
C94        N2438   1.351       .  A
C94         C108   1.409       .  A
C94         C102   1.382       .  A
C95         C103   1.385       .  A
C95         C106   1.414       .  A
C96        N2440   1.353       .  A
C96         C104   1.386       .  A
C96         C107   1.415       .  A
C97          C98   1.370       .  A
C97         H109   1.081       .  S
C98         H110   1.082       .  S
C99         C100   1.375       .  A
C99         H111   1.082       .  S
C100        H112   1.083       .  S
C101       C2454   1.373   1_556  A
C101        H113   1.080       .  S
C102       C2453   1.373   1_554  A
C102        H114   1.082       .  S
C103       C2456   1.375   1_556  A
C103        H115   1.082       .  S
C104       C2455   1.376   1_554  A
C104        H116   1.082       .  S
C105       C1161   1.485       .  S
C106       C1088   1.491       .  S
C107        C928   1.480       .  S
C108        C971   1.480       .  S
N119        C124   1.354       .  A
N119        C123   1.356       .  A
N119        H151   1.043       .  S
N120        C127   1.354       .  A
N120        C128   1.352   1_556  A
N121        C126   1.358       .  A
N121        C125   1.355       .  A
N121        H152   1.043       .  S
N122        C129   1.349       .  A
N122        C130   1.352   1_556  A
C123        C131   1.386       .  A
C123        C139   1.414       .  A
C124        C140   1.412       .  A
C124        C132   1.388       .  A
C125        C133   1.389       .  A
C125        C142   1.422       .  A
C126        C141   1.416       .  A
C126        C134   1.384       .  A
C127        C139   1.416       .  A
C127        C135   1.387       .  A
C128        C142   1.413       .  A
C128        C136   1.384       .  A
C129        C137   1.386       .  A
C129        C140   1.408       .  A
C130        C138   1.386       .  A
C130        C141   1.411       .  A
C131        C132   1.363       .  A
C131        H143   1.082       .  S
C132        H144   1.082       .  S
C133        C134   1.372       .  A
C133        H145   1.079       .  S
C134        H146   1.083       .  S
C135        C136   1.374   1_556  A
C135        H147   1.082       .  S
C136        H148   1.082       .  S
C137        C138   1.370   1_556  A
C137        H149   1.082       .  S
C138        H150   1.082       .  S
C139       C1078   1.528       .  S
C140       C1121   1.477       .  S
C141        C961   1.496       .  S
C142       C1001   1.503       .  S
C153        C848   1.571       .  S
C153        C861   1.571       .  S
C153        C868   1.570       .  S
C153       C3190   1.564   1_455  S
C154        C798   1.568       .  S
C154        C811   1.569       .  S
C154        C818   1.560       .  S
C154        C831   1.563       .  S
C155        C771   1.569       .  S
C155        C781   1.555       .  S
C155        C791   1.562       .  S
C155       C1937   1.562       .  S
O156        C171   1.267       .  A
O156       Al164   1.926       .  S
C157        O167   1.265       .  A
C157        O158   1.266       .  A
C157        C768   1.490       .  S
O158       Al160   1.914       .  S
O159        C161   1.261       .  A
O159       Al160   1.928       .  S
Al160       O168   1.937       .  S
Al160       O170   1.924       .  S
Al160       O169   1.795       .  S
C161        O174   1.258       .  A
C161        C851   1.485       .  S
O162        C172   1.262       .  A
O162       Al164   1.917       .  S
O163        C176   1.262       .  A
O163       Al173   1.913       .  S
Al164       O177   1.899       .  S
Al164       O174   1.890       .  S
Al164       O169   1.787       .  S
O165        C172   1.260       .  A
O165       Al173   1.906       .  S
O166        C175   1.261       .  A
O166       Al173   1.915       .  S
O167       Al173   1.921       .  S
O168        C175   1.265       .  A
O169       Al173   1.797       .  S
O170        C171   1.270       .  A
C171        C748   1.501       .  S
C172        C808   1.480       .  S
C175        C728   1.487       .  S
C176        O177   1.262       .  A
C176        C738   1.484       .  S
C178        C698   1.557       .  S
C178        C708   1.550       .  S
C178        C718   1.557       .  S
C178        C901   1.550       .  S
C179        C668   1.561       .  S
C179        C681   1.562       .  S
C179        C688   1.561       .  S
C179        C891   1.562       .  S
C180        C638   1.568       .  S
C180        C648   1.560       .  S
C180        C658   1.562       .  S
C180        C881   1.559       .  S
O181       C2548   1.263   1_455  A
O181       Al189   1.909       .  S
C182        O183   1.259       .  A
C182       O2544   1.263       .  A
C182        C671   1.484       .  S
O183       Al185   1.896       .  S
O184       C1362   1.263       .  A
O184       Al185   1.922       .  S
Al185       O193   1.910       .  S
Al185      O1371   1.903       .  S
Al185      O2546   1.786       .  S
C186        O199   1.262       .  A
C186       O1360   1.265   1_545  A
C186        C641   1.496       .  S
O187        C197   1.262       .  A
O187       Al189   1.893       .  S
O188       C1377   1.267       .  A
O188       Al198   1.936       .  S
Al189       O202   1.886       .  S
Al189      O2551   1.911   1_455  S
Al189      O1370   1.779   1_545  S
O190        C197   1.266       .  A
O190      Al1374   1.918   1_545  S
O191        C200   1.265       .  A
O191      Al2550   1.923       .  S
O192       C2534   1.262   1_455  A
O192       Al198   1.913       .  S
O193        C200   1.263       .  A
O194       Al198   1.790       .  S
O194      Al2537   1.785   1_455  S
O194      Al1365   1.781       .  S
O195        C196   1.261       .  A
O195      Al1361   1.895   1_545  S
C196       O2533   1.264       .  A
C196        C908   1.470       .  S
C197        C701   1.480       .  S
Al198      O1366   1.910       .  S
Al198      O2543   1.919   1_455  S
O199      Al2541   1.914       .  S
C200        C941   1.474       .  S
C201        O202   1.259       .  A
C201       O1364   1.266   1_545  A
C201        C978   1.492       .  S
N203        C208   1.358       .  A
N203        C207   1.355       .  A
N203        H235   1.028       .  S
N204        C211   1.352       .  A
N204        C212   1.353       .  A
N205        C210   1.355       .  A
N205        C209   1.356       .  A
N205        H236   1.033       .  S
N206        C213   1.353       .  A
N206        C214   1.352       .  A
C207        C215   1.387       .  A
C207        C223   1.426       .  A
C208        C224   1.428       .  A
C208        C216   1.389       .  A
C209        C217   1.389       .  A
C209        C226   1.421       .  A
C210        C225   1.420       .  A
C210        C218   1.388       .  A
C211        C223   1.420       .  A
C211        C219   1.388       .  A
C212        C226   1.416       .  A
C212        C220   1.385       .  A
C213        C221   1.389       .  A
C213        C224   1.422       .  A
C214        C222   1.385       .  A
C214        C225   1.414       .  A
C215        C216   1.372       .  A
C215        H227   1.082       .  S
C216        H228   1.079       .  S
C217        C218   1.364       .  A
C217        H229   1.081       .  S
C218        H230   1.081       .  S
C219        C220   1.372       .  A
C219        H231   1.082       .  S
C220       H2584   1.081   1_455  S
C221        C222   1.366       .  A
C221        H233   1.082       .  S
C222        H234   1.082       .  S
C223        C871   1.492       .  S
C224        C821   1.498       .  S
C225        C721   1.488       .  S
C226        C651   1.490       .  S
H232       C2572   1.082       .  S
N237        C242   1.351       .  A
N237        C241   1.350       .  A
N237        H269   1.036       .  S
N238        C245   1.353       .  A
N238        C246   1.352       .  A
N239        C244   1.356       .  A
N239        C243   1.357       .  A
N239        H270   1.039       .  S
N240        C247   1.350       .  A
N240        C248   1.348       .  A
C241        C249   1.388       .  A
C241        C257   1.413       .  A
C242        C258   1.410       .  A
C242        C250   1.386       .  A
C243        C251   1.388       .  A
C243        C260   1.422       .  A
C244        C259   1.419       .  A
C244        C252   1.386       .  A
C245        C257   1.417       .  A
C245        C253   1.385       .  A
C246        C260   1.416       .  A
C246        C254   1.387       .  A
C247        C255   1.387       .  A
C247        C258   1.412       .  A
C248        C256   1.385       .  A
C248        C259   1.407       .  A
C249        C250   1.374       .  A
C249        H261   1.083       .  S
C250        H262   1.083       .  S
C251        C252   1.364       .  A
C251        H263   1.080       .  S
C252        H264   1.078       .  S
C253        C254   1.377       .  A
C253        H265   1.082       .  S
C254        H266   1.081       .  S
C255        C256   1.375       .  A
C255        H267   1.082       .  S
C256       H1444   1.082       .  S
C257        C828   1.484       .  S
C258        C778   1.478       .  S
C259        C661   1.488       .  S
C260        C691   1.492       .  S
H268       C1432   1.082       .  S
N271        C276   1.352       .  A
N271        C275   1.352       .  A
N271        H303   1.043       .  S
N272        C279   1.351       .  A
N272        C280   1.346       .  A
N273        C278   1.357       .  A
N273        C277   1.350       .  A
N273        H304   1.036       .  S
N274        C281   1.350       .  A
N274        C282   1.351       .  A
C275        C283   1.384       .  A
C275        C291   1.411       .  A
C276        C292   1.417       .  A
C276        C284   1.389       .  A
C277        C285   1.385       .  A
C277        C294   1.414       .  A
C278        C293   1.423       .  A
C278        C286   1.391       .  A
C279        C291   1.407       .  A
C279        C287   1.383       .  A
C280        C294   1.412       .  A
C280        C288   1.389       .  A
C281        C289   1.382       .  A
C281        C292   1.409       .  A
C282        C290   1.390   1_455  A
C282        C293   1.422       .  A
C283        C284   1.377       .  A
C283        H295   1.081       .  S
C284        H296   1.082       .  S
C285        C286   1.372       .  A
C285        H297   1.083       .  S
C286        H298   1.078       .  S
C287        C288   1.375       .  A
C287        H299   1.082       .  S
C288       H1476   1.083       .  S
C289        C290   1.367   1_455  A
C289        H301   1.082   1_455  S
C290       H2654   1.080       .  S
C291        C788   1.490       .  S
C292        C858   1.498       .  S
C293        C678   1.496   1_455  S
C294        C711   1.470       .  S
H300       C1464   1.083   1_545  S
H302       C2642   1.080       .  S
C305        C608   1.567       .  S
C305        C618   1.563       .  S
C305        C628   1.564       .  S
C305       C1028   1.566       .  S
C306        C578   1.594       .  S
C306        C588   1.563       .  S
C306        C601   1.579       .  S
C306       C1038   1.589       .  S
C307        C551   1.580       .  S
C307        C558   1.572       .  S
C307        C568   1.573       .  S
C307       C1051   1.565       .  S
O308        C323   1.267       .  A
O308      Al1492   1.918       .  S
C309        O319   1.262       .  A
C309        O310   1.262       .  A
C309        C611   1.476       .  S
O310       Al312   1.910       .  S
O311        C313   1.258       .  A
O311      Al2664   1.902   1_455  S
Al312       O320   1.921       .  S
Al312      O2663   1.903       .  S
Al312      O2674   1.914       .  S
Al312      O2673   1.800       .  S
C313        O326   1.258       .  A
C313        C548   1.472       .  S
O314        C324   1.262       .  A
O314       Al316   1.912       .  S
O315        C328   1.266       .  A
O315      Al2677   1.927   1_455  S
Al316       O329   1.917       .  S
Al316      O1484   1.919   1_545  S
Al316      O1502   1.903   1_545  S
Al316      O1497   1.790   1_545  S
O317        C324   1.259       .  A
O317      Al2677   1.902   1_455  S
O318        C327   1.259       .  A
O318      Al1501   1.896       .  S
O319      Al1501   1.906       .  S
O320        C327   1.264       .  A
O321      Al2664   1.801   1_455  S
O321      Al1492   1.793       .  S
O321      Al3853   1.800   1_455  S
O322        C323   1.263       .  A
O322      Al2664   1.911   1_455  S
C323       C1141   1.492       .  S
C324        C581   1.489       .  S
Al325      O2667   1.927       .  S
Al325      O2669   1.908       .  S
Al325      O1494   1.892   1_545  S
Al325      O1495   1.906   1_545  S
Al325      O3849   1.801   1_545  S
O326      Al1492   1.903       .  S
C327       C1098   1.489       .  S
C328        O329   1.265       .  A
C328       C1058   1.497       .  S
C330        C521   1.578       .  S
C330        C528   1.572       .  S
C330        C538   1.564       .  S
C330       C1907   1.573   1_545  S
C331        C488   1.576       .  S
C331        C498   1.567       .  S
C331        C508   1.573       .  S
C331       C3103   1.566       .  S
C332        C458   1.568       .  S
C332        C468   1.571       .  S
C332        C478   1.559       .  S
C332        C741   1.554       .  S
O333        C348   1.262       .  A
O333       Al341   1.904       .  S
C334        O344   1.263       .  A
C334        O335   1.266       .  A
C334        C461   1.489       .  S
O335       Al337   1.940       .  S
O336        C338   1.263       .  A
O336       Al337   1.908       .  S
Al337       O345   1.918       .  S
Al337       O347   1.911       .  S
Al337       O346   1.797       .  S
C338        O351   1.265       .  A
C338        C491   1.480       .  S
O339        C349   1.259       .  A
O339       Al341   1.906       .  S
O340        C353   1.261       .  A
O340       Al350   1.898       .  S
Al341       O354   1.938       .  S
Al341       O351   1.915       .  S
Al341       O346   1.790       .  S
O342        C349   1.264       .  A
O342       Al350   1.935       .  S
O343        C352   1.264       .  A
O343       Al350   1.921       .  S
O344       Al350   1.890       .  S
O345        C352   1.262       .  A
O346       Al350   1.789       .  S
O347        C348   1.262       .  A
C348        C841   1.479       .  S
C349        C518   1.499       .  S
C352        C801   1.483       .  S
C353        O354   1.267       .  A
C353        C758   1.477       .  S
N355        C360   1.354       .  A
N355        C359   1.353       .  A
N355        H387   1.043       .  S
N356        C363   1.355       .  A
N356        C364   1.351       .  A
N357        C362   1.359       .  A
N357        C361   1.360       .  A
N357        H388   1.040       .  S
N358        C365   1.352       .  A
N358        C366   1.349       .  A
C359        C367   1.385       .  A
C359        C375   1.411       .  A
C360        C376   1.416       .  A
C360        C368   1.388       .  A
C361        C369   1.388       .  A
C361        C378   1.425       .  A
C362        C377   1.421       .  A
C362        C370   1.385       .  A
C363        C375   1.418       .  A
C363        C371   1.384       .  A
C364        C378   1.421       .  A
C364        C372   1.386       .  A
C365        C373   1.385       .  A
C365        C376   1.415       .  A
C366        C374   1.387       .  A
C366        C377   1.413       .  A
C367        C368   1.371       .  A
C367        H379   1.083       .  S
C368        H380   1.082       .  S
C369        C370   1.367       .  A
C369        H381   1.082       .  S
C370        H382   1.080       .  S
C371        C372   1.362       .  A
C371       H2735   1.077       .  S
C372       H2736   1.080       .  S
C373        C374   1.369       .  A
C373        H385   1.080       .  S
C374        H386   1.080       .  S
C375        C501   1.506       .  S
C376        C471   1.503       .  S
C377        C631   1.493       .  S
C378        C561   1.503       .  S
H383       C2723   1.077   1_455  S
H384       C2724   1.080   1_455  S
N389        C394   1.349       .  A
N389        C393   1.350       .  A
N389        H421   1.038       .  S
N390        C397   1.355       .  A
N390        C398   1.350       .  A
N391        C396   1.362       .  A
N391        C395   1.357       .  A
N391        H422   1.038       .  S
N392        C399   1.349       .  A
N392        C400   1.348       .  A
C393        C401   1.386       .  A
C393        C409   1.409       .  A
C394        C410   1.410       .  A
C394        C402   1.387       .  A
C395        C403   1.392       .  A
C395        C412   1.432       .  A
C396        C411   1.423       .  A
C396        C404   1.384       .  A
C397        C409   1.415       .  A
C397        C405   1.383       .  A
C398        C412   1.418       .  A
C398        C406   1.390   1_545  A
C399        C407   1.387       .  A
C399        C410   1.410       .  A
C400        C408   1.385       .  A
C400        C411   1.407       .  A
C401        C402   1.374       .  A
C401        H413   1.083       .  S
C402        H414   1.083       .  S
C403        C404   1.373       .  A
C403        H415   1.082       .  S
C404        H416   1.082       .  S
C405        C406   1.377   1_545  A
C405        H417   1.082   1_545  S
C406       H1594   1.080       .  S
C407        C408   1.373       .  A
C407        H419   1.082       .  S
C408        H420   1.083       .  S
C409        C541   1.490       .  S
C410        C481   1.477       .  S
C411        C598   1.495       .  S
C412        C571   1.491   1_545  S
H418       C1582   1.080       .  S
N423        C428   1.351       .  A
N423        C427   1.354       .  A
N423        H455   1.037       .  S
N424        C431   1.357       .  A
N424        C432   1.352       .  A
N425        C430   1.360       .  A
N425        C429   1.356       .  A
N425        H456   1.034       .  S
N426        C433   1.352       .  A
N426        C434   1.353       .  A
C427        C435   1.386       .  A
C427        C443   1.416       .  A
C428        C444   1.415       .  A
C428        C436   1.388       .  A
C429        C437   1.391       .  A
C429        C446   1.430       .  A
C430        C445   1.424       .  A
C430        C438   1.386       .  A
C431        C443   1.419       .  A
C431        C439   1.384       .  A
C432        C446   1.423       .  A
C432        C440   1.389       .  A
C433        C441   1.387   1_545  A
C433        C444   1.416       .  A
C434        C442   1.386   1_545  A
C434        C445   1.418       .  A
C435        C436   1.374       .  A
C435        H447   1.083       .  S
C436        H448   1.083       .  S
C437        C438   1.367       .  A
C437        H449   1.081       .  S
C438        H450   1.081       .  S
C439        C440   1.375       .  A
C439       H2803   1.081       .  S
C440       H2804   1.080       .  S
C441        C442   1.376       .  A
C441       H1629   1.082       .  S
C442        H454   1.082       .  S
C443        C591   1.501       .  S
C444        C621   1.482   1_545  S
C445        C531   1.501       .  S
C446        C511   1.493       .  S
H451       C2791   1.081       .  S
H452       C2792   1.080   1_455  S
H453       C1617   1.082       .  S
C457        C458   1.412       .  A
C457        C462   1.408       .  A
C457        H464   1.083       .  S
C458        C459   1.424       .  A
C459        C460   1.392       .  A
C459        F466   1.358       .  S
C460        C461   1.400       .  A
C460        H465   1.083       .  S
C461        C462   1.411       .  A
C462        F463   1.357       .  S
C467        C468   1.422       .  A
C467        C472   1.395       .  A
C467        H474   1.082       .  S
C468        C469   1.423       .  A
C469        C470   1.395       .  A
C469        F476   1.348       .  S
C470        C471   1.403       .  A
C470        H475   1.084       .  S
C471        C472   1.404       .  A
C472        F473   1.358       .  S
C477        C478   1.417       .  A
C477        C482   1.384       .  A
C477        H484   1.084       .  S
C478        C479   1.423       .  A
C479        C480   1.401       .  A
C479        F486   1.355       .  S
C480        C481   1.400       .  A
C480        H485   1.083       .  S
C481        C482   1.396       .  A
C482        F483   1.358       .  S
C487        C488   1.423       .  A
C487        C492   1.392       .  A
C487        H494   1.078       .  S
C488        C489   1.420       .  A
C489        C490   1.409       .  A
C489        F496   1.358       .  S
C490        C491   1.404       .  A
C490        H495   1.083       .  S
C491        C492   1.396       .  A
C492        F493   1.357       .  S
C497        C498   1.414       .  A
C497        C502   1.399       .  A
C497        H504   1.073       .  S
C498        C499   1.421       .  A
C499        C500   1.392       .  A
C499        F506   1.358       .  S
C500        C501   1.401       .  A
C500        H505   1.079       .  S
C501        C502   1.410       .  A
C502        F503   1.358       .  S
C507        C508   1.421       .  A
C507        C512   1.386       .  A
C507        H514   1.084       .  S
C508        C509   1.423       .  A
C509        C510   1.406       .  A
C509       F2868   1.352       .  S
C510        C511   1.404       .  A
C510        H515   1.083       .  S
C511        C512   1.399       .  A
C512        F513   1.359       .  S
F516       C2861   1.352   1_455  S
C517        C518   1.404       .  A
C517        C522   1.403       .  A
C517        H524   1.083       .  S
C518        C519   1.409       .  A
C519        C520   1.405       .  A
C519        F526   1.356       .  S
C520        C521   1.417       .  A
C520        H525   1.076       .  S
C521        C522   1.422       .  A
C522        F523   1.358       .  S
C527        C528   1.422       .  A
C527        C532   1.392       .  A
C527        H534   1.080       .  S
C528        C529   1.417       .  A
C529        C530   1.411       .  A
C529       F1712   1.357       .  S
C530        C531   1.409       .  A
C530        H535   1.083       .  S
C531        C532   1.399       .  A
C532        F533   1.358       .  S
F536       C1705   1.357       .  S
C537        C538   1.417   1_565  A
C537        C542   1.410   1_565  A
C537       H1720   1.078       .  S
C538        C539   1.422       .  A
C539        C540   1.388       .  A
C539        F546   1.357       .  S
C540        C541   1.395       .  A
C540        H545   1.084       .  S
C541        C542   1.405       .  A
C542       F1719   1.357   1_545  S
F543       C1718   1.357       .  S
H544       C1713   1.078       .  S
C547        C548   1.400       .  A
C547        C552   1.405       .  A
C547        H554   1.083       .  S
C548        C549   1.394       .  A
C549        C550   1.393       .  A
C549        F556   1.358       .  S
C550        C551   1.425       .  A
C550        H555   1.076       .  S
C551        C552   1.422       .  A
C552        F553   1.358       .  S
C557        C558   1.419       .  A
C557       C2914   1.401   1_455  A
C557        H564   1.069       .  S
C558        C559   1.422       .  A
C559        C560   1.387       .  A
C559        F566   1.358       .  S
C560       C2913   1.401   1_455  A
C560        H565   1.083       .  S
C561        C562   1.405       .  A
C561       C2912   1.402       .  A
C562       C2909   1.399       .  A
C562        F563   1.358       .  S
C567        C568   1.419       .  A
C567        C572   1.406       .  A
C567        H574   1.077       .  S
C568        C569   1.427       .  A
C569       C1746   1.385       .  A
C569        F576   1.359       .  S
C570        C571   1.395       .  A
C570       C1745   1.385       .  A
C570        H575   1.084       .  S
C571       C1748   1.406       .  A
C572       C1747   1.405       .  A
C572        F573   1.357       .  S
C577        C578   1.427       .  A
C577        C582   1.401       .  A
C577        H584   1.069       .  S
C578        C579   1.429       .  A
C579        C580   1.397       .  A
C579        F586   1.358       .  S
C580        C581   1.400       .  A
C580        H585   1.083       .  S
C581        C582   1.400       .  A
C582        F583   1.358       .  S
C587        C588   1.418       .  A
C587        C592   1.392       .  A
C587        H594   1.083       .  S
C588        C589   1.422       .  A
C589        C590   1.409       .  A
C589        F596   1.355       .  S
C590       C2943   1.404       .  A
C590        H595   1.083       .  S
C591       C2942   1.407       .  A
C591       C2944   1.402       .  A
C592       C2943   1.401       .  A
C592       F2945   1.358   1_455  S
F593       C2944   1.358       .  S
C597        C598   1.398       .  A
C597        C602   1.394       .  A
C597        H604   1.084       .  S
C598        C599   1.403       .  A
C599        C600   1.407       .  A
C599        F606   1.357       .  S
C600        C601   1.421       .  A
C600        H605   1.083       .  S
C601        C602   1.425       .  A
C602        F603   1.356       .  S
C607        C608   1.419       .  A
C607        C612   1.400       .  A
C607        H614   1.083       .  S
C608        C609   1.424       .  A
C609        C610   1.400       .  A
C609        F616   1.351       .  S
C610        C611   1.397       .  A
C610        H615   1.084       .  S
C611        C612   1.400       .  A
C612        F613   1.357       .  S
C617        C618   1.419       .  A
C617        C622   1.383       .  A
C617        H624   1.082       .  S
C618        C619   1.421       .  A
C619       C1796   1.408       .  A
C619        F626   1.354       .  S
C620        C621   1.403       .  A
C620       C1795   1.408       .  A
C620        H625   1.083       .  S
C621       C1798   1.394       .  A
C622       C1797   1.395       .  A
C622        F623   1.358       .  S
C627        C628   1.420       .  A
C627        C632   1.391       .  A
C627        H634   1.080       .  S
C628        C629   1.416       .  A
C629        C630   1.403       .  A
C629        F636   1.356       .  S
C630        C631   1.405       .  A
C630        H635   1.083       .  S
C631        C632   1.400       .  A
C632        F633   1.358       .  S
C637        C638   1.418       .  A
C637        C642   1.409       .  A
C637        H644   1.076       .  S
C638        C639   1.417       .  A
C639        C640   1.397       .  A
C639        F646   1.357       .  S
C640        C641   1.405       .  A
C640        H645   1.083       .  S
C641        C642   1.408       .  A
C642        F643   1.357   1_545  S
C647        C648   1.417       .  A
C647       C3004   1.406       .  A
C647        H654   1.080       .  S
C648        C649   1.419       .  A
C649        C650   1.388       .  A
C649        F656   1.358       .  S
C650       C3003   1.397       .  A
C650        H655   1.084       .  S
C651        C652   1.404   1_455  A
C651       C3002   1.398   1_455  A
C652       C2999   1.404       .  A
C652        F653   1.357   1_655  S
C657        C658   1.419       .  A
C657        C662   1.392       .  A
C657        H664   1.081       .  S
C658        C659   1.415       .  A
C659       C1836   1.403       .  A
C659        F666   1.355       .  S
C660        C661   1.405       .  A
C660       C1835   1.402       .  A
C660        H665   1.083       .  S
C661       C1838   1.399       .  A
C662       C1837   1.400       .  A
C662        F663   1.358       .  S
C667        C668   1.417       .  A
C667        C672   1.403       .  A
C667        H674   1.079       .  S
C668        C669   1.416       .  A
C669        C670   1.392       .  A
C669        F676   1.358       .  S
C670        C671   1.403       .  A
C670        H675   1.083       .  S
C671        C672   1.405       .  A
C672        F673   1.357       .  S
C677        C682   1.385       .  A
C677       C3030   1.399       .  A
C677        H684   1.083       .  S
C678        C679   1.409       .  A
C678       C3029   1.399       .  A
C679       C3032   1.405       .  A
C679        F686   1.358   1_655  S
C680        C681   1.415       .  A
C680       C3031   1.405       .  A
C680        H685   1.082       .  S
C681        C682   1.417       .  A
C682        F683   1.358       .  S
C687        C688   1.417       .  A
C687        C692   1.385       .  A
C687        H694   1.083       .  S
C688        C689   1.419       .  A
C689        C690   1.410       .  A
C689        F696   1.355       .  S
C690        C691   1.407       .  A
C690        H695   1.083       .  S
C691        C692   1.399       .  A
C692        F693   1.359       .  S
C697        C698   1.414       .  A
C697        C702   1.398       .  A
C697        H704   1.079       .  S
C698        C699   1.418       .  A
C699        C700   1.394       .  A
C699        F706   1.357       .  S
C700        C701   1.401       .  A
C700        H705   1.083       .  S
C701        C702   1.406       .  A
C702        F703   1.358       .  S
C707        C708   1.417       .  A
C707        C712   1.383       .  A
C707        H714   1.083       .  S
C708        C709   1.418       .  A
C709       C1886   1.400       .  A
C709        F716   1.355       .  S
C710        C711   1.399       .  A
C710       C1885   1.400       .  A
C710        H715   1.083       .  S
C711       C1888   1.394       .  A
C712       C1887   1.393   1_545  A
C712        F713   1.358   1_545  S
C717        C718   1.416       .  A
C717        C722   1.388       .  A
C717        H724   1.081       .  S
C718        C719   1.417       .  A
C719        C720   1.399       .  A
C719        F726   1.356       .  S
C720        C721   1.403       .  A
C720        H725   1.083       .  S
C721        C722   1.400       .  A
C722        F723   1.358       .  S
C727        C728   1.404       .  A
C727        C732   1.415       .  A
C727        H734   1.083       .  S
C728        C729   1.398       .  A
C729        C730   1.396       .  A
C729        F736   1.355       .  S
C730        C731   1.418       .  A
C730        H735   1.079       .  S
C731       C1506   1.573       .  S
C731        C732   1.423       .  A
C732        F733   1.357       .  S
C737        C738   1.402       .  A
C737        C742   1.403       .  A
C737        H744   1.084       .  S
C738        C739   1.405       .  A
C739        C740   1.398       .  A
C739        F746   1.357       .  S
C740        C741   1.413       .  A
C740        H745   1.083       .  S
C741        C742   1.423       .  A
C742        F743   1.356       .  S
C747        C748   1.402       .  A
C747        C752   1.407       .  A
C747        H754   1.083       .  S
C748        C749   1.412       .  A
C749        C750   1.404       .  A
C749        F756   1.357       .  S
C750        C751   1.413       .  A
C750        H755   1.083       .  S
C751       C2683   1.569   1_455  S
C751        C752   1.428       .  A
C752        F753   1.355       .  S
C757        C758   1.399       .  A
C757        C762   1.399       .  A
C757        H764   1.084       .  S
C758        C759   1.401       .  A
C759        C760   1.407       .  A
C759        F766   1.357       .  S
C760        C761   1.419       .  A
C760        H765   1.082       .  S
C761       C1331   1.560   1_545  S
C761        C762   1.419       .  A
C762        F763   1.356   1_545  S
C767        C768   1.401       .  A
C767        C772   1.403       .  A
C767        H774   1.083       .  S
C768        C769   1.407       .  A
C769        C770   1.397       .  A
C769        F776   1.356       .  S
C770        C771   1.416       .  A
C770        H775   1.083       .  S
C771        C772   1.424       .  A
C772        F773   1.352       .  S
C777        C778   1.401       .  A
C777        C782   1.405       .  A
C777        H784   1.083       .  S
C778        C779   1.395       .  A
C779        C780   1.385       .  A
C779        F786   1.358       .  S
C780        C781   1.415       .  A
C780        H785   1.082       .  S
C781        C782   1.422       .  A
C782        F783   1.355       .  S
C787        C788   1.396       .  A
C787        C792   1.394       .  A
C787        H794   1.083       .  S
C788        C789   1.407       .  A
C789        C790   1.406       .  A
C789        F796   1.357       .  S
C790        C791   1.411       .  A
C790        H795   1.083       .  S
C791        C792   1.425       .  A
C792        F793   1.358       .  S
C797        C798   1.420       .  A
C797        C802   1.411       .  A
C797        H804   1.082       .  S
C798        C799   1.425       .  A
C799        C800   1.393       .  A
C799        F806   1.356       .  S
C800        C801   1.397       .  A
C800        H805   1.084       .  S
C801        C802   1.403       .  A
C802        F803   1.357       .  S
C807        C808   1.398       .  A
C807        C812   1.400       .  A
C807        H814   1.084       .  S
C808        C809   1.402       .  A
C809        C810   1.402       .  A
C809        F816   1.357       .  S
C810        C811   1.418       .  A
C810        H815   1.083       .  S
C811        C812   1.426       .  A
C812        F813   1.353       .  S
C817        C818   1.416       .  A
C817        C822   1.406       .  A
C817        H824   1.082       .  S
C818        C819   1.420       .  A
C819        C820   1.389       .  A
C819        F826   1.357       .  S
C820        C821   1.400       .  A
C820        H825   1.084       .  S
C821        C822   1.408       .  A
C822        F823   1.357       .  S
C827        C828   1.392       .  A
C827        C832   1.385       .  A
C827        H834   1.084       .  S
C828        C829   1.403       .  A
C829        C830   1.409       .  A
C829        F836   1.357       .  S
C830        C831   1.418       .  A
C830        H835   1.078       .  S
C831        C832   1.423       .  A
C832        F833   1.356       .  S
C837        C838   1.421       .  A
C837        C842   1.399       .  A
C837        H844   1.078       .  S
C838       C2505   1.563       .  S
C838        C839   1.418       .  A
C839        C840   1.404       .  A
C839        F846   1.357       .  S
C840        C841   1.403       .  A
C840        H845   1.083       .  S
C841        C842   1.399       .  A
C842        F843   1.358       .  S
C847        C848   1.421       .  A
C847        C852   1.391       .  A
C847        H854   1.078       .  S
C848        C849   1.416       .  A
C849        C850   1.407       .  A
C849        F856   1.358       .  S
C850        C851   1.408       .  A
C850        H855   1.083       .  S
C851        C852   1.401       .  A
C852        F853   1.358       .  S
C857        C858   1.400       .  A
C857        C862   1.395       .  A
C857        H864   1.083       .  S
C858        C859   1.406       .  A
C859        C860   1.390       .  A
C859        F866   1.357       .  S
C860        C861   1.417       .  A
C860       H3217   1.083   1_455  S
C861        C862   1.425       .  A
C862        F863   1.347       .  S
H865       C3212   1.084       .  S
C867        C868   1.421       .  A
C867        C872   1.387       .  A
C867        H874   1.084       .  S
C868        C869   1.420       .  A
C869        C870   1.406       .  A
C869       F3228   1.354   1_455  S
C870        C871   1.405       .  A
C870        H875   1.083       .  S
C871        C872   1.397       .  A
C872        F873   1.358       .  S
F876       C3221   1.353       .  S
C877        C878   1.399       .  A
C877        C882   1.393       .  A
C877        H884   1.084       .  S
C878        C879   1.401       .  A
C879        C880   1.406       .  A
C879        F886   1.357       .  S
C880        C881   1.419       .  A
C880        H885   1.082       .  S
C881        C882   1.423       .  A
C882        F883   1.356       .  S
C887        C888   1.405       .  A
C887        C892   1.414       .  A
C887        H894   1.083       .  S
C888        C889   1.399       .  A
C889        C890   1.387       .  A
C889        F896   1.359       .  S
C890        C891   1.417       .  A
C890        H895   1.080       .  S
C891        C892   1.420       .  A
C892        F893   1.357       .  S
C897        C898   1.399       .  A
C897        C902   1.405       .  A
C897        H904   1.083       .  S
C898        C899   1.402       .  A
C899        C900   1.387       .  A
C899        F906   1.358       .  S
C900        C901   1.412       .  A
C900        H905   1.080       .  S
C901        C902   1.421       .  A
C902        F903   1.357       .  S
C907        C908   1.397       .  A
C907        C912   1.387       .  A
C907        H914   1.084       .  S
C908        C909   1.400       .  A
C909        C910   1.405       .  A
C909        F916   1.357       .  S
C910        C911   1.418       .  A
C910        H915   1.083       .  S
C911        C912   1.422       .  A
C912        F913   1.357       .  S
C917        C918   1.418       .  A
C917        C922   1.402       .  A
C917        H924   1.078       .  S
C918        C919   1.416       .  A
C919        C920   1.392       .  A
C919        F926   1.358       .  S
C920        C921   1.402       .  A
C920        H925   1.083       .  S
C921        C922   1.405       .  A
C922        F923   1.358       .  S
C927        C928   1.396       .  A
C927        C932   1.387       .  A
C927        H934   1.084       .  S
C928        C929   1.400       .  A
C929        C930   1.403       .  A
C929       F3288   1.357       .  S
C930        C931   1.418       .  A
C930        H935   1.078       .  S
C931        C932   1.422       .  A
C932        F933   1.357       .  S
F936       C3281   1.357       .  S
C937        C938   1.419       .  A
C937        C942   1.408       .  A
C937        H944   1.083       .  S
C938        C939   1.423       .  A
C939        C940   1.395       .  A
C939        F946   1.356       .  S
C940        C941   1.396       .  A
C940        H945   1.084       .  S
C941        C942   1.401       .  A
C942        F943   1.357       .  S
C947        C948   1.417       .  A
C947        C952   1.397       .  A
C947        H954   1.078       .  S
C948        C949   1.422       .  A
C949        C950   1.400       .  A
C949        F956   1.357       .  S
C950        C951   1.397       .  A
C950        H955   1.083       .  S
C951        C952   1.400       .  A
C952        F953   1.358       .  S
C957        C958   1.418       .  A
C957        C962   1.394       .  A
C957        H964   1.079       .  S
C958        C959   1.418       .  A
C959        C960   1.404       .  A
C959        F966   1.357       .  S
C960        C961   1.404       .  A
C960        H965   1.083       .  S
C961        C962   1.401       .  A
C962        F963   1.358       .  S
C967        C968   1.417       .  A
C967        C972   1.387       .  A
C967        H974   1.083       .  S
C968        C969   1.424       .  A
C969        C970   1.404       .  A
C969        F976   1.354       .  S
C970        C971   1.399       .  A
C970        H975   1.083       .  S
C971        C972   1.397       .  A
C972        F973   1.358       .  S
C977        C978   1.404       .  A
C977        C982   1.388       .  A
C977        H984   1.083       .  S
C978        C979   1.407       .  A
C979        C980   1.414       .  A
C979        F986   1.357       .  S
C980        C981   1.421       .  A
C980        H985   1.080       .  S
C981        C982   1.414       .  A
C982        F983   1.356       .  S
C987        C988   1.416       .  A
C987        C992   1.401       .  A
C987        H994   1.081       .  S
C988        C989   1.421       .  A
C989        C990   1.398       .  A
C989        F996   1.351       .  S
C990        C991   1.397       .  A
C990        H995   1.083       .  S
C991        C992   1.405       .  A
C992        F993   1.357       .  S
C997        C998   1.412       .  A
C997       C1002   1.399       .  A
C997       H1004   1.081       .  S
C998        C999   1.416       .  A
C999       C1000   1.397       .  A
C999       F1006   1.357       .  S
C1000      C1001   1.407       .  A
C1000      H1005   1.082       .  S
C1001      C1002   1.408       .  A
C1002      F1003   1.358       .  S
C1007      C1008   1.397       .  A
C1007      C1012   1.389       .  A
C1007      H1014   1.083       .  S
C1008      C1009   1.407       .  A
C1009      C1010   1.400       .  A
C1009      F1016   1.358       .  S
C1010      C1011   1.413       .  A
C1010      H1015   1.082       .  S
C1011      C1012   1.420       .  A
C1012      F1013   1.356       .  S
C1017      C1018   1.392       .  A
C1017      C1022   1.391       .  A
C1017      H1024   1.084       .  S
C1018      C1019   1.403       .  A
C1019      C1020   1.402       .  A
C1019      F1026   1.357       .  S
C1020      C1021   1.414       .  A
C1020      H1025   1.082       .  S
C1021      C1022   1.429       .  A
C1022      F1023   1.355       .  S
C1027      C1028   1.419       .  A
C1027      C1032   1.411       .  A
C1027      H1034   1.083       .  S
C1028      C1029   1.424       .  A
C1029      C1030   1.395       .  A
C1029      F1036   1.356       .  S
C1030      C1031   1.396       .  A
C1030      H1035   1.080       .  S
C1031      C1032   1.402       .  A
C1032      F1033   1.357       .  S
C1037      C1038   1.418       .  A
C1037      C1042   1.398       .  A
C1037      H1044   1.064       .  S
C1038      C1039   1.432       .  A
C1039      C1040   1.413       .  A
C1039      F1046   1.355       .  S
C1040      C1041   1.402       .  A
C1040      H1045   1.083       .  S
C1041      C1042   1.401       .  A
C1042      F1043   1.357       .  S
C1047      C1048   1.400       .  A
C1047      C1052   1.404       .  A
C1047      H1054   1.083       .  S
C1048      C1049   1.410       .  A
C1049      C1050   1.398       .  A
C1049      F1056   1.357       .  S
C1050      C1051   1.411       .  A
C1050      H1055   1.083       .  S
C1051      C1052   1.429       .  A
C1052      F1053   1.355       .  S
C1057      C1058   1.407       .  A
C1057      C1062   1.414       .  A
C1057      H1064   1.083       .  S
C1058      C1059   1.406       .  A
C1059      C1060   1.395       .  A
C1059      F1066   1.358       .  S
C1060      C1061   1.414       .  A
C1060      H1065   1.083       .  S
C1061      C1062   1.422       .  A
C1062      F1063   1.354       .  S
C1067      C1068   1.398       .  A
C1067      C1072   1.404       .  A
C1067      H1074   1.083       .  S
C1068      C1069   1.399       .  A
C1069      C1070   1.399       .  A
C1069      F1076   1.355       .  S
C1070      C1071   1.417       .  A
C1070      H1075   1.080       .  S
C1071      C1072   1.425       .  A
C1072      F1073   1.356       .  S
C1077      C1078   1.414       .  A
C1077      C1082   1.396       .  A
C1077      H1084   1.082       .  S
C1078      C1079   1.415       .  A
C1079      C1080   1.405       .  A
C1079      F1086   1.355       .  S
C1080      C1081   1.415       .  A
C1080      H1085   1.083       .  S
C1081      C1082   1.411       .  A
C1082      F1083   1.357       .  S
C1087      C1088   1.405       .  A
C1087      C1092   1.408       .  A
C1087      H1094   1.083       .  S
C1088      C1089   1.394       .  A
C1089      C1090   1.390       .  A
C1089      F1096   1.359       .  S
C1090      C1091   1.424       .  A
C1090      H1095   1.076       .  S
C1091      C1092   1.419       .  A
C1092      F1093   1.357       .  S
C1097      C1098   1.404       .  A
C1097      C1102   1.395       .  A
C1097      H1104   1.083       .  S
C1098      C1099   1.405       .  A
C1099      C1100   1.408       .  A
C1099      F1106   1.357       .  S
C1100      C1101   1.419       .  A
C1100      H1105   1.078       .  S
C1101      C1102   1.416       .  A
C1102      F1103   1.357       .  S
C1107      C1108   1.419       .  A
C1107      C1112   1.400       .  A
C1107      H1114   1.081       .  S
C1108      C1109   1.422       .  A
C1109      C1110   1.401       .  A
C1109      F1116   1.356       .  S
C1110      C1111   1.399       .  A
C1110      H1115   1.080       .  S
C1111      C1112   1.397       .  A
C1112      F1113   1.357       .  S
C1117      C1118   1.414       .  A
C1117      C1122   1.401       .  A
C1117      H1124   1.082       .  S
C1118      C1119   1.428       .  A
C1119      C1120   1.385       .  A
C1119      F1126   1.356       .  S
C1120      C1121   1.390       .  A
C1120      H1125   1.084       .  S
C1121      C1122   1.401       .  A
C1122      F1123   1.357       .  S
C1127      C1128   1.411       .  A
C1127      C1132   1.398       .  A
C1127      H1134   1.081       .  S
C1128      C1129   1.416       .  A
C1129      C1130   1.395       .  A
C1129      F1136   1.358       .  S
C1130      C1131   1.406       .  A
C1130      H1135   1.081       .  S
C1131      C1132   1.410       .  A
C1132      F1133   1.358       .  S
C1137      C1138   1.420       .  A
C1137      C1142   1.403       .  A
C1137      H1144   1.078       .  S
C1138      C1139   1.419       .  A
C1139      C1140   1.402       .  A
C1139      F1146   1.357       .  S
C1140      C1141   1.406       .  A
C1140      H1145   1.083       .  S
C1141      C1142   1.403       .  A
C1142      F1143   1.357       .  S
C1147      C1148   1.393       .  A
C1147      C1152   1.394       .  A
C1147      H1154   1.084       .  S
C1148      C1149   1.405       .  A
C1149      C1150   1.409       .  A
C1149      F1156   1.357       .  S
C1150      C1151   1.417       .  A
C1150      H1155   1.083       .  S
C1151      C1152   1.433       .  A
C1152      F1153   1.356       .  S
C1157      C1158   1.419       .  A
C1157      C1162   1.383       .  A
C1157      H1164   1.083       .  S
C1158      C1159   1.421       .  A
C1159      C1160   1.403       .  A
C1159      F1166   1.353       .  S
C1160      C1161   1.403       .  A
C1160      H1165   1.083       .  S
C1161      C1162   1.397       .  A
C1162      F1163   1.358       .  S
C1167      C1168   1.404       .  A
C1167      C1172   1.402       .  A
C1167      H1174   1.082       .  S
C1168      C1169   1.408       .  A
C1169      C1170   1.396       .  A
C1169      F1176   1.358       .  S
C1170      C1171   1.414       .  A
C1170      H1175   1.071       .  S
C1171      C1172   1.426       .  A
C1172      F1173   1.358       .  S
C1177      C2314   1.566       .  S
C1177      C2327   1.576       .  S
C1177      C2334   1.557       .  S
C1177      C2347   1.573       .  S
C1178      C2277   1.560       .  S
C1178      C2284   1.564       .  S
C1178      C2294   1.558       .  S
C1178      C2304   1.553       .  S
C1179      C2237   1.568       .  S
C1179      C2247   1.569       .  S
C1179      C2257   1.561       .  S
C1179      C2267   1.570       .  S
O1180      C1195   1.260       .  A
O1180     Al1188   1.902       .  S
C1181      O1191   1.261       .  A
C1181      O1182   1.260       .  A
C1181      C2244   1.475       .  S
O1182     Al1184   1.912       .  S
O1183      C1185   1.263       .  A
O1183     Al1184   1.913       .  S
Al1184     O1192   1.929       .  S
Al1184     O1194   1.918       .  S
Al1184     O1193   1.789       .  S
C1185      O1198   1.262       .  A
C1185      C2324   1.475       .  S
O1186      C1196   1.263       .  A
O1186     Al1188   1.924       .  S
O1187      C1200   1.264       .  A
O1187     Al1197   1.924       .  S
Al1188     O1201   1.915       .  S
Al1188     O1198   1.903       .  S
Al1188     O1193   1.795       .  S
O1189      C1196   1.263       .  A
O1189     Al1197   1.917       .  S
O1190      C1199   1.267       .  A
O1190     Al1197   1.929       .  S
O1191     Al1197   1.917       .  S
O1192      C1199   1.267       .  A
O1193     Al1197   1.793       .  S
O1194      C1195   1.265       .  A
C1195      C2224   1.490       .  S
C1196      C2287   1.477       .  S
C1199      C2217   1.502       .  S
C1200      O1201   1.261       .  A
C1200      C2207   1.482       .  S
N1202      C1207   1.358       .  A
N1202      C1206   1.355       .  A
N1202      H1234   1.036       .  S
N1203      C1211   1.351       .  A
N1204      C1209   1.351       .  A
N1204      C1208   1.351       .  A
N1204      H1235   1.044   1_565  S
N1205      C1213   1.351       .  A
C1206      C1214   1.385       .  A
C1206      C1222   1.419       .  A
C1207      C1223   1.429       .  A
C1207      C1215   1.391       .  A
C1208      C1216   1.387       .  A
C1208      C1225   1.413       .  A
C1209      C1224   1.413       .  A
C1209      C1217   1.387       .  A
C1210      C1222   1.416       .  A
C1210      C1218   1.388       .  A
C1211      C1225   1.413   1_545  A
C1211      C1219   1.385       .  A
C1212      C1220   1.390   1_554  A
C1212      C1223   1.421       .  A
C1213      C1221   1.383       .  A
C1213      C1224   1.412   1_545  A
C1214      C1215   1.371       .  A
C1214      H1226   1.082       .  S
C1215      H1227   1.080       .  S
C1216      C1217   1.376       .  A
C1216      H1228   1.083       .  S
C1217      H1229   1.082       .  S
C1218      H1230   1.082       .  S
C1219      H1231   1.081       .  S
C1220      H1232   1.079   1_556  S
C1221      H1233   1.082       .  S
C1222      C2194   1.484       .  S
C1223      C2184   1.495       .  S
C1224      C2307   1.501       .  S
C1225      C2344   1.501       .  S
C1236      C2157   1.563       .  S
C1236      C2164   1.567       .  S
C1236      C2174   1.558       .  S
C1236      C2197   1.559       .  S
C1237      C2114   1.562       .  S
C1237      C2124   1.565       .  S
C1237      C2134   1.568       .  S
C1237      C2144   1.561       .  S
C1238      C2087   1.559       .  S
C1238      C2094   1.557       .  S
C1238      C2107   1.560       .  S
C1238      C2187   1.557       .  S
O1239      C1254   1.263       .  A
O1239     Al1247   1.922       .  S
C1240      O1250   1.262       .  A
C1240      O1241   1.260       .  A
C1240      C2167   1.484       .  S
O1241     Al1243   1.920       .  S
O1242      C1244   1.264       .  A
O1242     Al1243   1.907       .  S
Al1243     O1251   1.912       .  S
Al1243     O1253   1.908       .  S
Al1243     O1252   1.788       .  S
C1244      O1257   1.265       .  A
C1244      C2097   1.479       .  S
O1245      C1255   1.261       .  A
O1245     Al1247   1.904       .  S
O1246      C1259   1.263       .  A
O1246     Al1256   1.923       .  S
Al1247     O1260   1.899       .  S
Al1247     O1257   1.912       .  S
Al1247     O1252   1.786       .  S
O1248      C1255   1.260       .  A
O1248     Al1256   1.903       .  S
O1249      C1258   1.263       .  A
O1249     Al1256   1.899       .  S
O1250     Al1256   1.913       .  S
O1251      C1258   1.265       .  A
O1252     Al1256   1.783       .  S
O1253      C1254   1.262       .  A
C1254      C2054   1.479       .  S
C1255      C2127   1.471       .  S
C1258      C2074   1.467       .  S
C1259      O1260   1.261       .  A
C1259      C2064   1.478       .  S
N1261      C1266   1.357       .  A
N1261      C1265   1.355       .  A
N1261      H1293   1.035       .  S
N1262      C1269   1.348   1_554  A
N1262      C3622   1.352       .  A
N1263      C1268   1.349       .  A
N1263      C1267   1.348       .  A
N1263      H1294   1.037       .  S
N1264      C1271   1.352   1_554  A
N1264      C3624   1.352       .  A
C1265      C1273   1.392       .  A
C1265      C1281   1.429       .  A
C1266      C1282   1.420       .  A
C1266      C1274   1.385       .  A
C1267      C1275   1.386       .  A
C1267      C1284   1.407       .  A
C1268      C1283   1.410       .  A
C1268      C1276   1.388       .  A
C1269      C1281   1.417       .  A
C1269      C1277   1.391       .  A
C1270      N3614   1.351       .  A
C1270      C1284   1.409       .  A
C1270      C1278   1.382       .  A
C1271      C1279   1.386       .  A
C1271      C1282   1.415       .  A
C1272      N3616   1.353       .  A
C1272      C1280   1.386       .  A
C1272      C1283   1.416       .  A
C1273      C1274   1.371       .  A
C1273      H1285   1.081       .  S
C1274      H1286   1.082       .  S
C1275      C1276   1.374       .  A
C1275      H1287   1.083       .  S
C1276      H1288   1.083       .  S
C1277      C3630   1.372   1_556  A
C1277      H1289   1.080       .  S
C1278      C3629   1.372   1_554  A
C1278      H1290   1.082       .  S
C1279      C3632   1.374   1_556  A
C1279      H1291   1.082       .  S
C1280      C3631   1.375   1_554  A
C1280      H1292   1.082       .  S
C1281      C2337   1.484       .  S
C1282      C2264   1.491       .  S
C1283      C2104   1.482       .  S
C1284      C2147   1.479       .  S
N1295      C1300   1.357       .  A
N1295      C1299   1.357       .  A
N1295      H1327   1.042       .  S
N1296      C1303   1.355       .  A
N1296      C1304   1.355   1_556  A
N1297      C1302   1.359       .  A
N1297      C1301   1.356       .  A
N1297      H1328   1.043       .  S
N1298      C1305   1.349       .  A
N1298      C1306   1.351   1_556  A
C1299      C1307   1.387       .  A
C1299      C1315   1.420       .  A
C1300      C1316   1.414       .  A
C1300      C1308   1.386       .  A
C1301      C1309   1.387       .  A
C1301      C1318   1.423       .  A
C1302      C1317   1.417       .  A
C1302      C1310   1.384       .  A
C1303      C1315   1.420       .  A
C1303      C1311   1.388       .  A
C1304      C1318   1.415       .  A
C1304      C1312   1.383       .  A
C1305      C1313   1.386       .  A
C1305      C1316   1.407       .  A
C1306      C1314   1.386       .  A
C1306      C1317   1.410       .  A
C1307      C1308   1.364       .  A
C1307      H1319   1.082       .  S
C1308      H1320   1.082       .  S
C1309      C1310   1.372       .  A
C1309      H1321   1.077       .  S
C1310      H1322   1.083       .  S
C1311      C1312   1.375   1_556  A
C1311      H1323   1.082       .  S
C1312      H1324   1.082       .  S
C1313      C1314   1.369   1_556  A
C1313      H1325   1.082       .  S
C1314      H1326   1.082       .  S
C1315      C2254   1.532       .  S
C1316      C2297   1.480       .  S
C1317      C2137   1.495       .  S
C1318      C2177   1.507       .  S
C1329      C4366   1.565   1_455  S
C1329      C2024   1.571       .  S
C1329      C2037   1.572       .  S
C1329      C2044   1.572       .  S
C1330      C1974   1.567       .  S
C1330      C1987   1.568       .  S
C1330      C1994   1.562       .  S
C1330      C2007   1.563       .  S
C1331      C1947   1.566       .  S
C1331      C1957   1.556       .  S
C1331      C1967   1.558       .  S
O1332      C1347   1.267       .  A
O1332     Al1340   1.930       .  S
C1333      O1343   1.266       .  A
C1333      O1334   1.267       .  A
C1333      C1944   1.490       .  S
O1334     Al1336   1.914       .  S
O1335      C1337   1.261       .  A
O1335     Al1336   1.931       .  S
Al1336     O1344   1.935       .  S
Al1336     O1346   1.921       .  S
Al1336     O1345   1.793       .  S
C1337      O1350   1.257       .  A
C1337      C2027   1.485       .  S
O1338      C1348   1.261       .  A
O1338     Al1340   1.911       .  S
O1339      C1352   1.264       .  A
O1339     Al1349   1.917       .  S
Al1340     O1353   1.900       .  S
Al1340     O1350   1.886       .  S
Al1340     O1345   1.786       .  S
O1341      C1348   1.261       .  A
O1341     Al1349   1.908       .  S
O1342      C1351   1.262       .  A
O1342     Al1349   1.920       .  S
O1343     Al1349   1.928       .  S
O1344      C1351   1.264       .  A
O1345     Al1349   1.796       .  S
O1346      C1347   1.271       .  A
C1347      C1924   1.500       .  S
C1348      C1984   1.480       .  S
C1351      C1904   1.487       .  S
C1352      O1353   1.262       .  A
C1352      C1914   1.489       .  S
C1354      C1874   1.559       .  S
C1354      C1884   1.549       .  S
C1354      C1894   1.554       .  S
C1354      C2077   1.548       .  S
C1355      C1844   1.560       .  S
C1355      C1857   1.561       .  S
C1355      C1864   1.559       .  S
C1355      C2067   1.559       .  S
C1356      C1814   1.564       .  S
C1356      C1824   1.561       .  S
C1356      C1834   1.558       .  S
C1356      C2057   1.560       .  S
O1357      C3724   1.263   1_455  A
O1357     Al1365   1.915       .  S
C1358      O3720   1.262       .  A
C1358      O1359   1.258       .  A
C1358      C1847   1.482       .  S
O1359     Al1361   1.890       .  S
O1360     Al1361   1.929       .  S
Al1361     O1369   1.911       .  S
Al1361     O3722   1.784       .  S
C1362      O1375   1.262       .  A
C1362      C1817   1.492       .  S
O1363      C1373   1.263       .  A
O1363     Al1365   1.902       .  S
O1364     Al1374   1.939       .  S
Al1365     O1378   1.890       .  S
Al1365     O3727   1.911   1_455  S
O1366      C1373   1.263       .  A
O1367      C1376   1.265       .  A
O1367     Al3726   1.925       .  S
O1368      C3710   1.261   1_455  A
O1368     Al1374   1.915       .  S
O1369      C1376   1.263       .  A
O1370     Al3713   1.785   1_455  S
O1370     Al1374   1.794       .  S
O1371      C1372   1.263       .  A
C1372      O3709   1.264       .  A
C1372      C2084   1.474       .  S
C1373      C1877   1.480       .  S
Al1374     O3719   1.922   1_455  S
O1375     Al3717   1.914       .  S
C1376      C2117   1.475       .  S
C1377      O1378   1.260       .  A
C1377      C2154   1.490       .  S
N1379      C1384   1.359       .  A
N1379      C1383   1.354       .  A
N1379      H1411   1.030       .  S
N1380      C1387   1.353       .  A
N1380      C1388   1.354       .  A
N1381      C1386   1.355       .  A
N1381      C1385   1.358       .  A
N1381      H1412   1.036       .  S
N1382      C1389   1.353       .  A
N1382      C1390   1.350       .  A
C1383      C1391   1.388       .  A
C1383      C1399   1.426       .  A
C1384      C1400   1.428       .  A
C1384      C1392   1.389       .  A
C1385      C1393   1.389       .  A
C1385      C1402   1.424       .  A
C1386      C1401   1.420       .  A
C1386      C1394   1.387       .  A
C1387      C1399   1.421       .  A
C1387      C1395   1.388       .  A
C1388      C1402   1.417       .  A
C1388      C1396   1.385       .  A
C1389      C1397   1.389       .  A
C1389      C1400   1.421       .  A
C1390      C1398   1.385       .  A
C1390      C1401   1.412       .  A
C1391      C1392   1.372       .  A
C1391      H1403   1.082       .  S
C1392      H1404   1.079       .  S
C1393      C1394   1.365       .  A
C1393      H1405   1.081       .  S
C1394      H1406   1.081       .  S
C1395      C1396   1.372       .  A
C1395      H1407   1.082       .  S
C1396      H3760   1.081   1_455  S
C1397      C1398   1.366       .  A
C1397      H1409   1.082       .  S
C1398      H1410   1.082       .  S
C1399      C2047   1.491       .  S
C1400      C1997   1.499       .  S
C1401      C1897   1.485       .  S
C1402      C1827   1.498       .  S
H1408      C3748   1.082       .  S
N1413      C1418   1.350       .  A
N1413      C1417   1.350       .  A
N1413      H1445   1.035       .  S
N1414      C1421   1.354       .  A
N1414      C1422   1.352       .  A
N1415      C1420   1.358       .  A
N1415      C1419   1.357       .  A
N1415      H1446   1.038       .  S
N1416      C1423   1.350       .  A
N1416      C1424   1.350       .  A
C1417      C1425   1.388       .  A
C1417      C1433   1.413       .  A
C1418      C1434   1.410       .  A
C1418      C1426   1.386       .  A
C1419      C1427   1.389       .  A
C1419      C1436   1.423       .  A
C1420      C1435   1.421       .  A
C1420      C1428   1.385       .  A
C1421      C1433   1.418       .  A
C1421      C1429   1.385       .  A
C1422      C1436   1.417       .  A
C1422      C1430   1.388       .  A
C1423      C1431   1.387       .  A
C1423      C1434   1.412       .  A
C1424      C1432   1.385   1_565  A
C1424      C1435   1.410       .  A
C1425      C1426   1.374       .  A
C1425      H1437   1.083       .  S
C1426      H1438   1.082       .  S
C1427      C1428   1.364       .  A
C1427      H1439   1.081       .  S
C1428      H1440   1.079       .  S
C1429      C1430   1.378       .  A
C1429      H1441   1.082       .  S
C1430      H1442   1.081       .  S
C1431      C1432   1.374   1_565  A
C1431      H1443   1.082   1_565  S
C1433      C2004   1.485       .  S
C1434      C1954   1.477       .  S
C1435      C1837   1.492   1_565  S
C1436      C1867   1.491       .  S
N1447      C1452   1.351       .  A
N1447      C1451   1.352       .  A
N1447      H1479   1.043       .  S
N1448      C1455   1.350       .  A
N1448      C1456   1.345       .  A
N1449      C1454   1.356       .  A
N1449      C1453   1.350       .  A
N1449      H1480   1.038       .  S
N1450      C1457   1.348       .  A
N1450      C1458   1.350       .  A
C1451      C1459   1.384       .  A
C1451      C1467   1.411       .  A
C1452      C1468   1.416       .  A
C1452      C1460   1.389       .  A
C1453      C1461   1.384       .  A
C1453      C1470   1.412       .  A
C1454      C1469   1.423       .  A
C1454      C1462   1.391       .  A
C1455      C1467   1.405       .  A
C1455      C1463   1.384       .  A
C1456      C1470   1.408       .  A
C1456      C1464   1.388       .  A
C1457      C1465   1.383       .  A
C1457      C1468   1.408       .  A
C1458      C1466   1.390   1_455  A
C1458      C1469   1.419       .  A
C1459      C1460   1.378       .  A
C1459      H1471   1.081       .  S
C1460      H1472   1.082       .  S
C1461      C1462   1.371       .  A
C1461      H1473   1.083       .  S
C1462      H1474   1.078       .  S
C1463      C1464   1.375       .  A
C1463      H1475   1.082   1_565  S
C1465      C1466   1.367   1_455  A
C1465      H1477   1.082   1_455  S
C1466      H3830   1.079       .  S
C1467      C1964   1.487       .  S
C1468      C2034   1.494       .  S
C1469      C1854   1.494   1_455  S
C1470      C1887   1.469       .  S
H1478      C3818   1.080       .  S
C1481      C1784   1.566       .  S
C1481      C1794   1.563       .  S
C1481      C1804   1.568       .  S
C1481      C2204   1.566       .  S
C1482      C1754   1.598       .  S
C1482      C1764   1.562       .  S
C1482      C1777   1.578       .  S
C1482      C2214   1.593       .  S
C1483      C1727   1.582       .  S
C1483      C1734   1.576       .  S
C1483      C1744   1.572       .  S
C1483      C2227   1.562       .  S
O1484      C1499   1.266       .  A
C1485      O1495   1.263       .  A
C1485      O1486   1.262       .  A
C1485      C1787   1.477       .  S
O1486     Al1488   1.912       .  S
O1487      C1489   1.259       .  A
O1487     Al3840   1.900   1_455  S
Al1488     O3839   1.901       .  S
Al1488     O1496   1.921       .  S
Al1488     O3850   1.917       .  S
Al1488     O3849   1.800       .  S
C1489      O1502   1.260       .  A
C1489      C1724   1.472       .  S
O1490      C1500   1.264       .  A
O1490     Al1492   1.915       .  S
O1491      C1504   1.264       .  A
O1491     Al3853   1.928   1_455  S
Al1492     O1505   1.913       .  S
O1493      C1500   1.261       .  A
O1493     Al3853   1.907   1_455  S
O1494      C1503   1.259       .  A
O1496      C1503   1.264       .  A
O1497     Al3840   1.798   1_455  S
O1497     Al2677   1.799   1_465  S
O1498      C1499   1.262       .  A
O1498     Al3840   1.909   1_455  S
C1499      C2317   1.494       .  S
C1500      C1757   1.491       .  S
Al1501     O3843   1.928       .  S
Al1501     O3845   1.910       .  S
Al1501     O2673   1.802       .  S
C1503      C2274   1.487       .  S
C1504      O1505   1.262       .  A
C1504      C2234   1.498       .  S
C1506      C1697   1.577       .  S
C1506      C1704   1.574       .  S
C1506      C1714   1.566       .  S
C1507      C1664   1.573       .  S
C1507      C1674   1.568       .  S
C1507      C1684   1.572       .  S
C1507      C4279   1.568       .  S
C1508      C1634   1.567       .  S
C1508      C1644   1.573       .  S
C1508      C1654   1.561       .  S
C1508      C1917   1.556       .  S
O1509      C1524   1.263       .  A
O1509     Al1517   1.912       .  S
C1510      O1520   1.263       .  A
C1510      O1511   1.267       .  A
C1510      C1637   1.488       .  S
O1511     Al1513   1.942       .  S
O1512      C1514   1.263       .  A
O1512     Al1513   1.905       .  S
Al1513     O1521   1.916       .  S
Al1513     O1523   1.915       .  S
Al1513     O1522   1.794       .  S
C1514      O1527   1.264       .  A
C1514      C1667   1.477       .  S
O1515      C1525   1.260       .  A
O1515     Al1517   1.910       .  S
O1516      C1529   1.261       .  A
O1516     Al1526   1.898       .  S
Al1517     O1530   1.936       .  S
Al1517     O1527   1.909       .  S
Al1517     O1522   1.789       .  S
O1518      C1525   1.264       .  A
O1518     Al1526   1.935       .  S
O1519      C1528   1.264       .  A
O1519     Al1526   1.924       .  S
O1520     Al1526   1.888       .  S
O1521      C1528   1.262       .  A
O1522     Al1526   1.788       .  S
O1523      C1524   1.263       .  A
C1524      C2017   1.485       .  S
C1525      C1694   1.499       .  S
C1528      C1977   1.484       .  S
C1529      O1530   1.268       .  A
C1529      C1934   1.473       .  S
N1531      C1536   1.354       .  A
N1531      C1535   1.353       .  A
N1531      H1563   1.044       .  S
N1532      C1539   1.355       .  A
N1532      C1540   1.350       .  A
N1533      C1538   1.360       .  A
N1533      C1537   1.361       .  A
N1533      H1564   1.038       .  S
N1534      C1541   1.354       .  A
N1534      C1542   1.349       .  A
C1535      C1543   1.385       .  A
C1535      C1551   1.412       .  A
C1536      C1552   1.416       .  A
C1536      C1544   1.388       .  A
C1537      C1545   1.387       .  A
C1537      C1554   1.426       .  A
C1538      C1553   1.425       .  A
C1538      C1546   1.385       .  A
C1539      C1551   1.416       .  A
C1539      C1547   1.384       .  A
C1540      C1554   1.421       .  A
C1540      C1548   1.388       .  A
C1541      C1549   1.384       .  A
C1541      C1552   1.415       .  A
C1542      C1550   1.388       .  A
C1542      C1553   1.417       .  A
C1543      C1544   1.373       .  A
C1543      H1555   1.083       .  S
C1544      H1556   1.082       .  S
C1545      C1546   1.364       .  A
C1545      H1557   1.081       .  S
C1546      H1558   1.077       .  S
C1547      C1548   1.361       .  A
C1547      H3911   1.078       .  S
C1548      H3912   1.080       .  S
C1549      C1550   1.368       .  A
C1549      H1561   1.081       .  S
C1550      H1562   1.080       .  S
C1551      C1677   1.506       .  S
C1552      C1647   1.507       .  S
C1553      C1807   1.496       .  S
C1554      C1737   1.502       .  S
H1559      C3899   1.079   1_455  S
H1560      C3900   1.079   1_455  S
N1565      C1570   1.348       .  A
N1565      C1569   1.350       .  A
N1565      H1597   1.042       .  S
N1566      C1573   1.355       .  A
N1566      C1574   1.350       .  A
N1567      C1572   1.360       .  A
N1567      C1571   1.355       .  A
N1567      H1598   1.042       .  S
N1568      C1575   1.350       .  A
N1568      C1576   1.349       .  A
C1569      C1577   1.386       .  A
C1569      C1585   1.410       .  A
C1570      C1586   1.411       .  A
C1570      C1578   1.388       .  A
C1571      C1579   1.393       .  A
C1571      C1588   1.430       .  A
C1572      C1587   1.421       .  A
C1572      C1580   1.384       .  A
C1573      C1585   1.415       .  A
C1573      C1581   1.383       .  A
C1574      C1588   1.417       .  A
C1574      C1582   1.389       .  A
C1575      C1583   1.387       .  A
C1575      C1586   1.411       .  A
C1576      C1584   1.384       .  A
C1576      C1587   1.407       .  A
C1577      C1578   1.375       .  A
C1577      H1589   1.083       .  S
C1578      H1590   1.083       .  S
C1579      C1580   1.373       .  A
C1579      H1591   1.081       .  S
C1580      H1592   1.082       .  S
C1581      C1582   1.376       .  A
C1581      H1593   1.082       .  S
C1583      C1584   1.373       .  A
C1583      H1595   1.082       .  S
C1584      H1596   1.083       .  S
C1585      C1717   1.490       .  S
C1586      C1657   1.478       .  S
C1587      C1774   1.495       .  S
C1588      C1747   1.488       .  S
N1599      C1604   1.351       .  A
N1599      C1603   1.354       .  A
N1599      H1631   1.036       .  S
N1600      C1607   1.357       .  A
N1600      C1608   1.352       .  A
N1601      C1606   1.361       .  A
N1601      C1605   1.356       .  A
N1601      H1632   1.034       .  S
N1602      C1609   1.353       .  A
N1602      C1610   1.354       .  A
C1603      C1611   1.386       .  A
C1603      C1619   1.416       .  A
C1604      C1620   1.415       .  A
C1604      C1612   1.388       .  A
C1605      C1613   1.391       .  A
C1605      C1622   1.431       .  A
C1606      C1621   1.425       .  A
C1606      C1614   1.386       .  A
C1607      C1619   1.419       .  A
C1607      C1615   1.383       .  A
C1608      C1622   1.423       .  A
C1608      C1616   1.390       .  A
C1609      C1617   1.387       .  A
C1609      C1620   1.418       .  A
C1610      C1618   1.385       .  A
C1610      C1621   1.419       .  A
C1611      C1612   1.375       .  A
C1611      H1623   1.083       .  S
C1612      H1624   1.083       .  S
C1613      C1614   1.368       .  A
C1613      H1625   1.081       .  S
C1614      H1626   1.081       .  S
C1615      C1616   1.374       .  A
C1615      H3979   1.081       .  S
C1616      H3980   1.080       .  S
C1617      C1618   1.375       .  A
C1618      H1630   1.082       .  S
C1619      C1767   1.505       .  S
C1620      C1797   1.484       .  S
C1621      C1707   1.505       .  S
C1622      C1687   1.493       .  S
H1627      C3967   1.081       .  S
H1628      C3968   1.080   1_455  S
C1633      C1634   1.412       .  A
C1633      C1638   1.407       .  A
C1633      H1640   1.083       .  S
C1634      C1635   1.423       .  A
C1635      C1636   1.393       .  A
C1635      F1642   1.358       .  S
C1636      C1637   1.401       .  A
C1636      H1641   1.083       .  S
C1637      C1638   1.410       .  A
C1638      F1639   1.357       .  S
C1643      C1644   1.420       .  A
C1643      C1648   1.397       .  A
C1643      H1650   1.082       .  S
C1644      C1645   1.424       .  A
C1645      C1646   1.396       .  A
C1645      F1652   1.348       .  S
C1646      C1647   1.403       .  A
C1646      H1651   1.083       .  S
C1647      C1648   1.406       .  A
C1648      F1649   1.357       .  S
C1653      C1654   1.417       .  A
C1653      C1658   1.385       .  A
C1653      H1660   1.084       .  S
C1654      C1655   1.424       .  A
C1655      C1656   1.400       .  A
C1655      F1662   1.354       .  S
C1656      C1657   1.399       .  A
C1656      H1661   1.083       .  S
C1657      C1658   1.397       .  A
C1658      F1659   1.358       .  S
C1663      C1664   1.422       .  A
C1663      C1668   1.391       .  A
C1663      H1670   1.079       .  S
C1664      C1665   1.419       .  A
C1665      C1666   1.407       .  A
C1665      F1672   1.358       .  S
C1666      C1667   1.403       .  A
C1666      H1671   1.083       .  S
C1667      C1668   1.397       .  A
C1668      F1669   1.358       .  S
C1673      C1674   1.416       .  A
C1673      C1678   1.398       .  A
C1673      H1680   1.072       .  S
C1674      C1675   1.420       .  A
C1675      C1676   1.393       .  A
C1675      F1682   1.358       .  S
C1676      C1677   1.403       .  A
C1676      H1681   1.080       .  S
C1677      C1678   1.409       .  A
C1678      F1679   1.358       .  S
C1683      C1684   1.422       .  A
C1683      C1688   1.386       .  A
C1683      H1690   1.084       .  S
C1684      C1685   1.421       .  A
C1685      C1686   1.405       .  A
C1685      F4044   1.352       .  S
C1686      C1687   1.404       .  A
C1686      H1691   1.083       .  S
C1687      C1688   1.399       .  A
C1688      F1689   1.359       .  S
F1692      C4037   1.352   1_455  S
C1693      C1694   1.404       .  A
C1693      C1698   1.402       .  A
C1693      H1700   1.083       .  S
C1694      C1695   1.409       .  A
C1695      C1696   1.406       .  A
C1695      F1702   1.356       .  S
C1696      C1697   1.417       .  A
C1696      H1701   1.076       .  S
C1697      C1698   1.422       .  A
C1698      F1699   1.358       .  S
C1703      C1704   1.422       .  A
C1703      C1708   1.395       .  A
C1703      H1710   1.080       .  S
C1704      C1705   1.417       .  A
C1705      C1706   1.411       .  A
C1706      C1707   1.410       .  A
C1706      H1711   1.083       .  S
C1707      C1708   1.400       .  A
C1708      F1709   1.358       .  S
C1713      C1714   1.418       .  A
C1713      C1718   1.410       .  A
C1714      C1715   1.422       .  A
C1715      C1716   1.388       .  A
C1715      F1722   1.357       .  S
C1716      C1717   1.395       .  A
C1716      H1721   1.084       .  S
C1717      C1718   1.405       .  A
C1723      C1724   1.400       .  A
C1723      C1728   1.405       .  A
C1723      H1730   1.083       .  S
C1724      C1725   1.394       .  A
C1725      C1726   1.391       .  A
C1725      F1732   1.358   1_565  S
C1726      C1727   1.426       .  A
C1726      H1731   1.076       .  S
C1727      C1728   1.422       .  A
C1728      F1729   1.357       .  S
C1733      C1734   1.419       .  A
C1733      C4090   1.402   1_455  A
C1733      H1740   1.067       .  S
C1734      C1735   1.423       .  A
C1735      C1736   1.387       .  A
C1735      F1742   1.358       .  S
C1736      C4089   1.399   1_455  A
C1736      H1741   1.083       .  S
C1737      C4088   1.400       .  A
C1737      C1738   1.404       .  A
C1738      C4085   1.401       .  A
C1738      F1739   1.358       .  S
C1743      C1744   1.418       .  A
C1743      C1748   1.407       .  A
C1743      H1750   1.078       .  S
C1744      C1745   1.426       .  A
C1745      F1752   1.359       .  S
C1746      C1747   1.394       .  A
C1746      H1751   1.084       .  S
C1748      F1749   1.357       .  S
C1753      C1754   1.428       .  A
C1753      C1758   1.401       .  A
C1753      H1760   1.070       .  S
C1754      C1755   1.428       .  A
C1755      C1756   1.400       .  A
C1755      F1762   1.357       .  S
C1756      C1757   1.401       .  A
C1756      H1761   1.083       .  S
C1757      C1758   1.399       .  A
C1758      F1759   1.358       .  S
C1763      C1764   1.416       .  A
C1763      C1768   1.390       .  A
C1763      H1770   1.083       .  S
C1764      C1765   1.423       .  A
C1765      C1766   1.411       .  A
C1765      F1772   1.355       .  S
C1766      C4119   1.407       .  A
C1766      H1771   1.083       .  S
C1767      C4118   1.408       .  A
C1767      C4120   1.402       .  A
C1768      C4119   1.402       .  A
C1768      F4121   1.358   1_455  S
F1769      C4120   1.358       .  S
C1773      C1774   1.397       .  A
C1773      C1778   1.393       .  A
C1773      H1780   1.084       .  S
C1774      C1775   1.404       .  A
C1775      C1776   1.407       .  A
C1775      F1782   1.357       .  S
C1776      C1777   1.420       .  A
C1776      H1781   1.083       .  S
C1777      C1778   1.426       .  A
C1778      F1779   1.356       .  S
C1783      C1784   1.419       .  A
C1783      C1788   1.400       .  A
C1783      H1790   1.083       .  S
C1784      C1785   1.422       .  A
C1785      C1786   1.400       .  A
C1785      F1792   1.349       .  S
C1786      C1787   1.398       .  A
C1786      H1791   1.084       .  S
C1787      C1788   1.400       .  A
C1788      F1789   1.357       .  S
C1793      C1794   1.419       .  A
C1793      C1798   1.384       .  A
C1793      H1800   1.083       .  S
C1794      C1795   1.420       .  A
C1795      F1802   1.354       .  S
C1796      C1797   1.403       .  A
C1796      H1801   1.083       .  S
C1798      F1799   1.358       .  S
C1803      C1804   1.419       .  A
C1803      C1808   1.389       .  A
C1803      H1810   1.079       .  S
C1804      C1805   1.418       .  A
C1805      C1806   1.405       .  A
C1805      F1812   1.355       .  S
C1806      C1807   1.406       .  A
C1806      H1811   1.083       .  S
C1807      C1808   1.400       .  A
C1808      F1809   1.358       .  S
C1813      C1814   1.417       .  A
C1813      C1818   1.408       .  A
C1813      H1820   1.076       .  S
C1814      C1815   1.417       .  A
C1815      C1816   1.395       .  A
C1815      F1822   1.357       .  S
C1816      C1817   1.404       .  A
C1816      H1821   1.083       .  S
C1817      C1818   1.408       .  A
C1818      F1819   1.358       .  S
C1823      C1824   1.415       .  A
C1823      C4180   1.406       .  A
C1823      H1830   1.080       .  S
C1824      C1825   1.422       .  A
C1825      C1826   1.390       .  A
C1825      F1832   1.358       .  S
C1826      C4179   1.397       .  A
C1826      H1831   1.084       .  S
C1827      C4178   1.398   1_455  A
C1827      C1828   1.408       .  A
C1828      C4175   1.409   1_455  A
C1828      F1829   1.357       .  S
C1833      C1834   1.418       .  A
C1833      C1838   1.389       .  A
C1833      H1840   1.081       .  S
C1834      C1835   1.416       .  A
C1835      F1842   1.356       .  S
C1836      C1837   1.406       .  A
C1836      H1841   1.083   1_545  S
C1838      F1839   1.358       .  S
C1843      C1844   1.418       .  A
C1843      C1848   1.404       .  A
C1843      H1850   1.079       .  S
C1844      C1845   1.416       .  A
C1845      C1846   1.390       .  A
C1845      F1852   1.357       .  S
C1846      C1847   1.402       .  A
C1846      H1851   1.083       .  S
C1847      C1848   1.405       .  A
C1848      F1849   1.357       .  S
C1853      C4206   1.399       .  A
C1853      C1858   1.385       .  A
C1853      H1860   1.083       .  S
C1854      C4205   1.398       .  A
C1854      C1855   1.410       .  A
C1855      C4208   1.406       .  A
C1855      F1862   1.357   1_655  S
C1856      C4207   1.406       .  A
C1856      C1857   1.415       .  A
C1856      H1861   1.082       .  S
C1857      C1858   1.417       .  A
C1858      F1859   1.358       .  S
C1863      C1864   1.416       .  A
C1863      C1868   1.385       .  A
C1863      H1870   1.083       .  S
C1864      C1865   1.419       .  A
C1865      C1866   1.410       .  A
C1865      F1872   1.355       .  S
C1866      C1867   1.406       .  A
C1866      H1871   1.083       .  S
C1867      C1868   1.399       .  A
C1868      F1869   1.359       .  S
C1873      C1874   1.416       .  A
C1873      C1878   1.400       .  A
C1873      H1880   1.078       .  S
C1874      C1875   1.417       .  A
C1875      C1876   1.393       .  A
C1875      F1882   1.357       .  S
C1876      C1877   1.402       .  A
C1876      H1881   1.083       .  S
C1877      C1878   1.405       .  A
C1878      F1879   1.357       .  S
C1883      C1884   1.416       .  A
C1883      C1888   1.382       .  A
C1883      H1890   1.083       .  S
C1884      C1885   1.419       .  A
C1885      F1892   1.355       .  S
C1886      C1887   1.399   1_545  A
C1886      H1891   1.083   1_545  S
C1888      F1889   1.358       .  S
C1893      C1894   1.416       .  A
C1893      C1898   1.387       .  A
C1893      H1900   1.081       .  S
C1894      C1895   1.416       .  A
C1895      C1896   1.399       .  A
C1895      F1902   1.357       .  S
C1896      C1897   1.403       .  A
C1896      H1901   1.083       .  S
C1897      C1898   1.399       .  A
C1898      F1899   1.358       .  S
C1903      C1904   1.403       .  A
C1903      C1908   1.415       .  A
C1903      H1910   1.083       .  S
C1904      C1905   1.398       .  A
C1905      C1906   1.395       .  A
C1905      F1912   1.353       .  S
C1906      C1907   1.417       .  A
C1906      H1911   1.078       .  S
C1907      C1908   1.424       .  A
C1908      F1909   1.357       .  S
C1913      C1914   1.403       .  A
C1913      C1918   1.403       .  A
C1913      H1920   1.083       .  S
C1914      C1915   1.406       .  A
C1915      C1916   1.401       .  A
C1915      F1922   1.358       .  S
C1916      C1917   1.414       .  A
C1916      H1921   1.083       .  S
C1917      C1918   1.422       .  A
C1918      F1919   1.356       .  S
C1923      C1924   1.400       .  A
C1923      C1928   1.404       .  A
C1923      H1930   1.083       .  S
C1924      C1925   1.412       .  A
C1925      C1926   1.406       .  A
C1925      F1932   1.358       .  S
C1926      C1927   1.414       .  A
C1926      H1931   1.083       .  S
C1927      C3859   1.571   1_455  S
C1927      C1928   1.429       .  A
C1928      F1929   1.354       .  S
C1933      C1934   1.397       .  A
C1933      C1938   1.397       .  A
C1933      H1940   1.084       .  S
C1934      C1935   1.400       .  A
C1935      C1936   1.407       .  A
C1935      F1942   1.357       .  S
C1936      C1937   1.419       .  A
C1936      H1941   1.082       .  S
C1937      C1938   1.422       .  A
C1938      F1939   1.356       .  S
C1943      C1944   1.400       .  A
C1943      C1948   1.401       .  A
C1943      H1950   1.083       .  S
C1944      C1945   1.408       .  A
C1945      C1946   1.399       .  A
C1945      F1952   1.356       .  S
C1946      C1947   1.414       .  A
C1946      H1951   1.083       .  S
C1947      C1948   1.424       .  A
C1948      F1949   1.353       .  S
C1953      C1954   1.399       .  A
C1953      C1958   1.403       .  A
C1953      H1960   1.083   1_565  S
C1954      C1955   1.396       .  A
C1955      C1956   1.387       .  A
C1955      F1962   1.358       .  S
C1956      C1957   1.415       .  A
C1956      H1961   1.081       .  S
C1957      C1958   1.422       .  A
C1958      F1959   1.355   1_565  S
C1963      C1964   1.398       .  A
C1963      C1968   1.396       .  A
C1963      H1970   1.083       .  S
C1964      C1965   1.405       .  A
C1965      C1966   1.402       .  A
C1965      F1972   1.357       .  S
C1966      C1967   1.412       .  A
C1966      H1971   1.082       .  S
C1967      C1968   1.422       .  A
C1968      F1969   1.357   1_565  S
C1973      C1974   1.419       .  A
C1973      C1978   1.410       .  A
C1973      H1980   1.082       .  S
C1974      C1975   1.425       .  A
C1975      C1976   1.396       .  A
C1975      F1982   1.356       .  S
C1976      C1977   1.398       .  A
C1976      H1981   1.084       .  S
C1977      C1978   1.402       .  A
C1978      F1979   1.357       .  S
C1983      C1984   1.398       .  A
C1983      C1988   1.399       .  A
C1983      H1990   1.084       .  S
C1984      C1985   1.402       .  A
C1985      C1986   1.403       .  A
C1985      F1992   1.357       .  S
C1986      C1987   1.419       .  A
C1986      H1991   1.083       .  S
C1987      C1988   1.425       .  A
C1988      F1989   1.353       .  S
C1993      C1994   1.416       .  A
C1993      C1998   1.406       .  A
C1993      H2000   1.082       .  S
C1994      C1995   1.420       .  A
C1995      C1996   1.388       .  A
C1995      F2002   1.357       .  S
C1996      C1997   1.400       .  A
C1996      H2001   1.083       .  S
C1997      C1998   1.408       .  A
C1998      F1999   1.357       .  S
C2003      C2004   1.393       .  A
C2003      C2008   1.385       .  A
C2003      H2010   1.084       .  S
C2004      C2005   1.404       .  A
C2005      C2006   1.410       .  A
C2005      F2012   1.357       .  S
C2006      C2007   1.418       .  A
C2006      H2011   1.078       .  S
C2007      C2008   1.423       .  A
C2008      F2009   1.356       .  S
C2013      C2014   1.420       .  A
C2013      C2018   1.401       .  A
C2013      H2020   1.079       .  S
C2014      C3681   1.566       .  S
C2014      C2015   1.419       .  A
C2015      C2016   1.406       .  A
C2015      F2022   1.357       .  S
C2016      C2017   1.404       .  A
C2016      H2021   1.083       .  S
C2017      C2018   1.401       .  A
C2018      F2019   1.358       .  S
C2023      C2024   1.420       .  A
C2023      C2028   1.390       .  A
C2023      H2030   1.078       .  S
C2024      C2025   1.416       .  A
C2025      C2026   1.408       .  A
C2025      F2032   1.358       .  S
C2026      C2027   1.408       .  A
C2026      H2031   1.083       .  S
C2027      C2028   1.401       .  A
C2028      F2029   1.358       .  S
C2033      C2034   1.398       .  A
C2033      C2038   1.394       .  A
C2033      H2040   1.084       .  S
C2034      C2035   1.405       .  A
C2035      C2036   1.391       .  A
C2035      F2042   1.358       .  S
C2036      C2037   1.418       .  A
C2036      H4393   1.083   1_455  S
C2037      C2038   1.426       .  A
C2038      F2039   1.346       .  S
H2041      C4388   1.083       .  S
C2043      C2044   1.422       .  A
C2043      C2048   1.388       .  A
C2043      H2050   1.084       .  S
C2044      C2045   1.420       .  A
C2045      C2046   1.405       .  A
C2045      F4404   1.353   1_455  S
C2046      C2047   1.404       .  A
C2046      H2051   1.083       .  S
C2047      C2048   1.397       .  A
C2048      F2049   1.358       .  S
F2052      C4397   1.353       .  S
C2053      C2054   1.398       .  A
C2053      C2058   1.392       .  A
C2053      H2060   1.084       .  S
C2054      C2055   1.401       .  A
C2055      C2056   1.408       .  A
C2055      F2062   1.357       .  S
C2056      C2057   1.419       .  A
C2056      H2061   1.082       .  S
C2057      C2058   1.423       .  A
C2058      F2059   1.356       .  S
C2063      C2064   1.404       .  A
C2063      C2068   1.412       .  A
C2063      H2070   1.083       .  S
C2064      C2065   1.399       .  A
C2065      C2066   1.387       .  A
C2065      F2072   1.359       .  S
C2066      C2067   1.416       .  A
C2066      H2071   1.080       .  S
C2067      C2068   1.420       .  A
C2068      F2069   1.357       .  S
C2073      C2074   1.398       .  A
C2073      C2078   1.404       .  A
C2073      H2080   1.083       .  S
C2074      C2075   1.401       .  A
C2075      C2076   1.386       .  A
C2075      F2082   1.358       .  S
C2076      C2077   1.411       .  A
C2076      H2081   1.080       .  S
C2077      C2078   1.422       .  A
C2078      F2079   1.357       .  S
C2083      C2084   1.397       .  A
C2083      C2088   1.389       .  A
C2083      H2090   1.084       .  S
C2084      C2085   1.401       .  A
C2085      C2086   1.406       .  A
C2085      F2092   1.357       .  S
C2086      C2087   1.417       .  A
C2086      H2091   1.083       .  S
C2087      C2088   1.423       .  A
C2088      F2089   1.357       .  S
C2093      C2094   1.418       .  A
C2093      C2098   1.401       .  A
C2093      H2100   1.079       .  S
C2094      C2095   1.416       .  A
C2095      C2096   1.392       .  A
C2095      F2102   1.358       .  S
C2096      C2097   1.402       .  A
C2096      H2101   1.083       .  S
C2097      C2098   1.404       .  A
C2098      F2099   1.358       .  S
C2103      C2104   1.394       .  A
C2103      C2108   1.387       .  A
C2103      H2110   1.084       .  S
C2104      C2105   1.401       .  A
C2105      C2106   1.405       .  A
C2105      F4464   1.357       .  S
C2106      C2107   1.417       .  A
C2106      H2111   1.078       .  S
C2107      C2108   1.423       .  A
C2108      F2109   1.357       .  S
F2112      C4457   1.357   1_455  S
C2113      C2114   1.420       .  A
C2113      C2118   1.409       .  A
C2113      H2120   1.083       .  S
C2114      C2115   1.422       .  A
C2115      C2116   1.395       .  A
C2115      F2122   1.355       .  S
C2116      C2117   1.396       .  A
C2116      H2121   1.084       .  S
C2117      C2118   1.401       .  A
C2118      F2119   1.357       .  S
C2123      C2124   1.417       .  A
C2123      C2128   1.396       .  A
C2123      H2130   1.077       .  S
C2124      C2125   1.423       .  A
C2125      C2126   1.400       .  A
C2125      F2132   1.357       .  S
C2126      C2127   1.397       .  A
C2126      H2131   1.083       .  S
C2127      C2128   1.400       .  A
C2128      F2129   1.358       .  S
C2133      C2134   1.418       .  A
C2133      C2138   1.394       .  A
C2133      H2140   1.079       .  S
C2134      C2135   1.418       .  A
C2135      C2136   1.405       .  A
C2135      F2142   1.357       .  S
C2136      C2137   1.404       .  A
C2136      H2141   1.083       .  S
C2137      C2138   1.402       .  A
C2138      F2139   1.358       .  S
C2143      C2144   1.416       .  A
C2143      C2148   1.387       .  A
C2143      H2150   1.083       .  S
C2144      C2145   1.425       .  A
C2145      C2146   1.403       .  A
C2145      F2152   1.354       .  S
C2146      C2147   1.398       .  A
C2146      H2151   1.083       .  S
C2147      C2148   1.397       .  A
C2148      F2149   1.358       .  S
C2153      C2154   1.403       .  A
C2153      C2158   1.389       .  A
C2153      H2160   1.084       .  S
C2154      C2155   1.405       .  A
C2155      C2156   1.413       .  A
C2155      F2162   1.357       .  S
C2156      C2157   1.422       .  A
C2156      H2161   1.080       .  S
C2157      C2158   1.414       .  A
C2158      F2159   1.356       .  S
C2163      C2164   1.417       .  A
C2163      C2168   1.402       .  A
C2163      H2170   1.082       .  S
C2164      C2165   1.421       .  A
C2165      C2166   1.398       .  A
C2165      F2172   1.349       .  S
C2166      C2167   1.396       .  A
C2166      H2171   1.083       .  S
C2167      C2168   1.407       .  A
C2168      F2169   1.357       .  S
C2173      C2174   1.412       .  A
C2173      C2178   1.401       .  A
C2173      H2180   1.081       .  S
C2174      C2175   1.417       .  A
C2175      C2176   1.401       .  A
C2175      F2182   1.358       .  S
C2176      C2177   1.407       .  A
C2176      H2181   1.082       .  S
C2177      C2178   1.409       .  A
C2178      F2179   1.357       .  S
C2183      C2184   1.399       .  A
C2183      C2188   1.390       .  A
C2183      H2190   1.083       .  S
C2184      C2185   1.408       .  A
C2185      C2186   1.401       .  A
C2185      F2192   1.358       .  S
C2186      C2187   1.414       .  A
C2186      H2191   1.081       .  S
C2187      C2188   1.419       .  A
C2188      F2189   1.357       .  S
C2193      C2194   1.391       .  A
C2193      C2198   1.390       .  A
C2193      H2200   1.084       .  S
C2194      C2195   1.403       .  A
C2195      C2196   1.402       .  A
C2195      F2202   1.357       .  S
C2196      C2197   1.416       .  A
C2196      H2201   1.082       .  S
C2197      C2198   1.427       .  A
C2198      F2199   1.354       .  S
C2203      C2204   1.419       .  A
C2203      C2208   1.411       .  A
C2203      H2210   1.083       .  S
C2204      C2205   1.426       .  A
C2205      C2206   1.394       .  A
C2205      F2212   1.356       .  S
C2206      C2207   1.395       .  A
C2206      H2211   1.081       .  S
C2207      C2208   1.403       .  A
C2208      F2209   1.357       .  S
C2213      C2214   1.418       .  A
C2213      C2218   1.400       .  A
C2213      H2220   1.063       .  S
C2214      C2215   1.434       .  A
C2215      C2216   1.414       .  A
C2215      F2222   1.355       .  S
C2216      C2217   1.402       .  A
C2216      H2221   1.083       .  S
C2217      C2218   1.403       .  A
C2218      F2219   1.358       .  S
C2223      C2224   1.400       .  A
C2223      C2228   1.404       .  A
C2223      H2230   1.083       .  S
C2224      C2225   1.410       .  A
C2225      C2226   1.398       .  A
C2225      F2232   1.358       .  S
C2226      C2227   1.412       .  A
C2226      H2231   1.083       .  S
C2227      C2228   1.427       .  A
C2228      F2229   1.355       .  S
C2233      C2234   1.407       .  A
C2233      C2238   1.414       .  A
C2233      H2240   1.083       .  S
C2234      C2235   1.407       .  A
C2235      C2236   1.396       .  A
C2235      F2242   1.358       .  S
C2236      C2237   1.414       .  A
C2236      H2241   1.083       .  S
C2237      C2238   1.423       .  A
C2238      F2239   1.354       .  S
C2243      C2244   1.397       .  A
C2243      C2248   1.402       .  A
C2243      H2250   1.083       .  S
C2244      C2245   1.400       .  A
C2245      C2246   1.400       .  A
C2245      F2252   1.356       .  S
C2246      C2247   1.417       .  A
C2246      H2251   1.079       .  S
C2247      C2248   1.425       .  A
C2248      F2249   1.356       .  S
C2253      C2254   1.414       .  A
C2253      C2258   1.397       .  A
C2253      H2260   1.081       .  S
C2254      C2255   1.416       .  A
C2255      C2256   1.407       .  A
C2255      F2262   1.355       .  S
C2256      C2257   1.415       .  A
C2256      H2261   1.083       .  S
C2257      C2258   1.412       .  A
C2258      F2259   1.357       .  S
C2263      C2264   1.404       .  A
C2263      C2268   1.407       .  A
C2263      H2270   1.083       .  S
C2264      C2265   1.394       .  A
C2265      C2266   1.390       .  A
C2265      F2272   1.359       .  S
C2266      C2267   1.424       .  A
C2266      H2271   1.074       .  S
C2267      C2268   1.420       .  A
C2268      F2269   1.357       .  S
C2273      C2274   1.404       .  A
C2273      C2278   1.394       .  A
C2273      H2280   1.084       .  S
C2274      C2275   1.404       .  A
C2275      C2276   1.407       .  A
C2275      F2282   1.357       .  S
C2276      C2277   1.419       .  A
C2276      H2281   1.079       .  S
C2277      C2278   1.416       .  A
C2278      F2279   1.357       .  S
C2283      C2284   1.419       .  A
C2283      C2288   1.402       .  A
C2283      H2290   1.081       .  S
C2284      C2285   1.421       .  A
C2285      C2286   1.401       .  A
C2285      F2292   1.356       .  S
C2286      C2287   1.399       .  A
C2286      H2291   1.080       .  S
C2287      C2288   1.399       .  A
C2288      F2289   1.357       .  S
C2293      C2294   1.415       .  A
C2293      C2298   1.400       .  A
C2293      H2300   1.082       .  S
C2294      C2295   1.428       .  A
C2295      C2296   1.388       .  A
C2295      F2302   1.355       .  S
C2296      C2297   1.391       .  A
C2296      H2301   1.084       .  S
C2297      C2298   1.400       .  A
C2298      F2299   1.357       .  S
C2303      C2304   1.411       .  A
C2303      C2308   1.398       .  A
C2303      H2310   1.081       .  S
C2304      C2305   1.415       .  A
C2305      C2306   1.395       .  A
C2305      F2312   1.357       .  S
C2306      C2307   1.406       .  A
C2306      H2311   1.081       .  S
C2307      C2308   1.410       .  A
C2308      F2309   1.358       .  S
C2313      C2314   1.421       .  A
C2313      C2318   1.403       .  A
C2313      H2320   1.078       .  S
C2314      C2315   1.418       .  A
C2315      C2316   1.403       .  A
C2315      F2322   1.357       .  S
C2316      C2317   1.407       .  A
C2316      H2321   1.083       .  S
C2317      C2318   1.402       .  A
C2318      F2319   1.357   1_565  S
C2323      C2324   1.391       .  A
C2323      C2328   1.391       .  A
C2323      H2330   1.084       .  S
C2324      C2325   1.404       .  A
C2325      C2326   1.407       .  A
C2325      F2332   1.357       .  S
C2326      C2327   1.415       .  A
C2326      H2331   1.083       .  S
C2327      C2328   1.433       .  A
C2328      F2329   1.356       .  S
C2333      C2334   1.421       .  A
C2333      C2338   1.383       .  A
C2333      H2340   1.083       .  S
C2334      C2335   1.419       .  A
C2335      C2336   1.402       .  A
C2335      F2342   1.353       .  S
C2336      C2337   1.404       .  A
C2336      H2341   1.083       .  S
C2337      C2338   1.396       .  A
C2338      F2339   1.359       .  S
C2343      C2344   1.402       .  A
C2343      C2348   1.398       .  A
C2343      H2350   1.082       .  S
C2344      C2345   1.407       .  A
C2345      C2346   1.394       .  A
C2345      F2352   1.358       .  S
C2346      C2347   1.414       .  A
C2346      H2351   1.071       .  S
C2347      C2348   1.425       .  A
C2348      F2349   1.359       .  S
C2353      C3490   1.568       .  S
C2353      C3503   1.579       .  S
C2353      C3510   1.561       .  S
C2353      C3523   1.576       .  S
C2354      C3453   1.559       .  S
C2354      C3460   1.563       .  S
C2354      C3470   1.558       .  S
C2354      C3480   1.554       .  S
C2355      C3413   1.565       .  S
C2355      C3423   1.572       .  S
C2355      C3433   1.561       .  S
C2355      C3443   1.567       .  S
O2356      C2371   1.258       .  A
O2356     Al2364   1.897       .  S
C2357      O2367   1.263       .  A
C2357      O2358   1.260       .  A
C2357      C3420   1.482       .  S
O2358     Al2360   1.913       .  S
O2359      C2361   1.263       .  A
O2359     Al2360   1.911       .  S
Al2360     O2368   1.923       .  S
Al2360     O2370   1.920       .  S
Al2360     O2369   1.791       .  S
C2361      O2374   1.264       .  A
C2361      C3500   1.479       .  S
O2362      C2372   1.262       .  A
O2362     Al2364   1.923       .  S
O2363      C2376   1.265       .  A
O2363     Al2373   1.926       .  S
Al2364     O2377   1.917       .  S
Al2364     O2374   1.911       .  S
Al2364     O2369   1.798       .  S
O2365      C2372   1.262       .  A
O2365     Al2373   1.911       .  S
O2366      C2375   1.266       .  A
O2366     Al2373   1.929       .  S
O2367     Al2373   1.928       .  S
O2368      C2375   1.265       .  A
O2369     Al2373   1.796       .  S
O2370      C2371   1.265       .  A
C2371      C3400   1.490       .  S
C2372      C3463   1.476       .  S
C2375      C3393   1.499       .  S
C2376      O2377   1.261       .  A
C2376      C3383   1.484       .  S
N2378      C2383   1.358       .  A
N2378      C2382   1.358       .  A
N2378      H2410   1.034       .  S
N2379      C3562   1.348   1_556  A
N2379      C2387   1.352       .  A
N2380      C2385   1.352       .  A
N2380      C2384   1.353       .  A
N2380      H2411   1.044       .  S
N2381      C3564   1.350   1_556  A
N2381      C2389   1.352       .  A
C2382      C2390   1.387       .  A
C2382      C2398   1.423       .  A
C2383      C2399   1.428       .  A
C2383      C2391   1.390       .  A
C2384      C2392   1.387       .  A
C2384      C2401   1.417       .  A
C2385      C2400   1.415       .  A
C2385      C2393   1.387       .  A
C2386      N3555   1.351   1_554  A
C2386      C2398   1.419       .  A
C2386      C2394   1.388       .  A
C2387      C2401   1.414       .  A
C2387      C2395   1.386       .  A
C2388      N3557   1.351   1_554  A
C2388      C2396   1.389       .  A
C2388      C2399   1.422       .  A
C2389      C2397   1.383       .  A
C2389      C2400   1.413       .  A
C2390      C2391   1.369       .  A
C2390      H2402   1.082       .  S
C2391      H2403   1.081       .  S
C2392      C2393   1.376       .  A
C2392      H2404   1.082       .  S
C2393      H2405   1.082       .  S
C2394      C3571   1.372   1_554  A
C2394      H2406   1.082       .  S
C2395      C3570   1.377   1_556  A
C2395      H2407   1.082       .  S
C2396      C3573   1.368   1_554  A
C2396      H2408   1.081       .  S
C2397      C3572   1.369   1_556  A
C2397      H2409   1.081       .  S
C2398      C3370   1.491       .  S
C2399      C3360   1.495       .  S
C2400      C3483   1.503       .  S
C2401      C3520   1.506       .  S
C2412      C3333   1.565       .  S
C2412      C3340   1.566       .  S
C2412      C3350   1.554       .  S
C2412      C3373   1.563       .  S
C2413      C3290   1.561       .  S
C2413      C3300   1.564       .  S
C2413      C3310   1.569       .  S
C2413      C3320   1.563       .  S
C2414      C3263   1.556       .  S
C2414      C3270   1.556       .  S
C2414      C3283   1.558       .  S
C2414      C3363   1.555       .  S
O2415      C2430   1.262       .  A
O2415     Al2423   1.920       .  S
C2416      O2426   1.263       .  A
C2416      O2417   1.259       .  A
C2416      C3343   1.483       .  S
O2417     Al2419   1.916       .  S
O2418      C2420   1.265       .  A
O2418     Al2419   1.906       .  S
Al2419     O2427   1.915       .  S
Al2419     O2429   1.907       .  S
Al2419     O2428   1.788       .  S
C2420      O2433   1.262       .  A
C2420      C3273   1.476       .  S
O2421      C2431   1.261       .  A
O2421     Al2423   1.904       .  S
O2422      C2435   1.265       .  A
O2422     Al2432   1.930       .  S
Al2423     O2436   1.888       .  S
Al2423     O2433   1.903       .  S
Al2423     O2428   1.789       .  S
O2424      C2431   1.260       .  A
O2424     Al2432   1.901       .  S
O2425      C2434   1.263       .  A
O2425     Al2432   1.903       .  S
O2426     Al2432   1.919       .  S
O2427      C2434   1.266       .  A
O2428     Al2432   1.785       .  S
O2429      C2430   1.261       .  A
C2430      C3230   1.478       .  S
C2431      C3303   1.472       .  S
C2434      C3250   1.471       .  S
C2435      O2436   1.259       .  A
C2435      C3240   1.477       .  S
N2437      C2442   1.357       .  A
N2437      C2441   1.358       .  A
N2437      H2469   1.031       .  S
N2438      C2445   1.348   1_554  A
N2439      C2444   1.349       .  A
N2439      C2443   1.350       .  A
N2439      H2470   1.033       .  S
N2440      C2447   1.351   1_554  A
C2441      C2449   1.391       .  A
C2441      C2457   1.429       .  A
C2442      C2458   1.420       .  A
C2442      C2450   1.386       .  A
C2443      C2451   1.385       .  A
C2443      C2460   1.409       .  A
C2444      C2459   1.411       .  A
C2444      C2452   1.388       .  A
C2445      C2457   1.416       .  A
C2445      C2453   1.390       .  A
C2446      C2460   1.410       .  A
C2446      C2454   1.382       .  A
C2447      C2455   1.386       .  A
C2447      C2458   1.414       .  A
C2448      C2456   1.387       .  A
C2448      C2459   1.417       .  A
C2449      C2450   1.370       .  A
C2449      H2461   1.081       .  S
C2450      H2462   1.082       .  S
C2451      C2452   1.374       .  A
C2451      H2463   1.083       .  S
C2452      H2464   1.083       .  S
C2453      H2465   1.080       .  S
C2454      H2466   1.082   1_455  S
C2455      H2467   1.082       .  S
C2456      H2468   1.082       .  S
C2457      C3513   1.489       .  S
C2458      C3440   1.490       .  S
C2459      C3280   1.480   1_455  S
C2460      C3323   1.482   1_455  S
N2471      C2476   1.357       .  A
N2471      C2475   1.358       .  A
N2471      H2503   1.042       .  S
N2472      C2479   1.354       .  A
N2472      C2480   1.353   1_556  A
N2473      C2478   1.358       .  A
N2473      C2477   1.354       .  A
N2473      H2504   1.043       .  S
N2474      C2481   1.349       .  A
N2474      C2482   1.353   1_556  A
C2475      C2483   1.387       .  A
C2475      C2491   1.420       .  A
C2476      C2492   1.415       .  A
C2476      C2484   1.387       .  A
C2477      C2485   1.389       .  A
C2477      C2494   1.422       .  A
C2478      C2493   1.415       .  A
C2478      C2486   1.384       .  A
C2479      C2491   1.418       .  A
C2479      C2487   1.388       .  A
C2480      C2494   1.412       .  A
C2480      C2488   1.383       .  A
C2481      C2489   1.387       .  A
C2481      C2492   1.409       .  A
C2482      C2490   1.385       .  A
C2482      C2493   1.411       .  A
C2483      C2484   1.362       .  A
C2483      H2495   1.082       .  S
C2484      H2496   1.082       .  S
C2485      C2486   1.373       .  A
C2485      H2497   1.079       .  S
C2486      H2498   1.083       .  S
C2487      C2488   1.375   1_556  A
C2487      H2499   1.082       .  S
C2488      H2500   1.082       .  S
C2489      C2490   1.368   1_556  A
C2489      H2501   1.082       .  S
C2490      H2502   1.082       .  S
C2491      C3430   1.532       .  S
C2492      C3473   1.479       .  S
C2493      C3313   1.498       .  S
C2494      C3353   1.504       .  S
C2505      C3200   1.571       .  S
C2505      C3213   1.570       .  S
C2505      C3220   1.573       .  S
C2506      C3150   1.571       .  S
C2506      C3163   1.565       .  S
C2506      C3170   1.560       .  S
C2506      C3183   1.566       .  S
C2507      C4289   1.564       .  S
C2507      C3123   1.569       .  S
C2507      C3133   1.554       .  S
C2507      C3143   1.562       .  S
O2508      C2523   1.266       .  A
O2508     Al2516   1.920       .  S
C2509      O2519   1.266       .  A
C2509      O2510   1.266       .  A
C2509      C3120   1.488       .  S
O2510     Al2512   1.911       .  S
O2511      C2513   1.260       .  A
O2511     Al2512   1.927       .  S
Al2512     O2520   1.936       .  S
Al2512     O2522   1.921       .  S
Al2512     O2521   1.793       .  S
C2513      O2526   1.257       .  A
C2513      C3203   1.481       .  S
O2514      C2524   1.260       .  A
O2514     Al2516   1.909       .  S
O2515      C2528   1.263       .  A
O2515     Al2525   1.911       .  S
Al2516     O2529   1.897       .  S
Al2516     O2526   1.885       .  S
Al2516     O2521   1.785       .  S
O2517      C2524   1.259       .  A
O2517     Al2525   1.900       .  S
O2518      C2527   1.261       .  A
O2518     Al2525   1.916       .  S
O2519     Al2525   1.923       .  S
O2520      C2527   1.264       .  A
O2521     Al2525   1.793       .  S
O2522      C2523   1.271       .  A
C2523      C3100   1.495       .  S
C2524      C3160   1.475       .  S
C2527      C3080   1.486       .  S
C2528      O2529   1.261       .  A
C2528      C3090   1.483       .  S
C2530      C3050   1.559       .  S
C2530      C3060   1.552       .  S
C2530      C3070   1.556       .  S
C2530      C3253   1.552       .  S
C2531      C3020   1.561       .  S
C2531      C3033   1.561       .  S
C2531      C3040   1.559       .  S
C2531      C3243   1.558       .  S
C2532      C2990   1.568       .  S
C2532      C3000   1.558       .  S
C2532      C3010   1.562       .  S
C2532      C3233   1.560       .  S
O2533     Al2541   1.917       .  S
C2534      O2535   1.260       .  A
C2534      C3023   1.483       .  S
O2535     Al2537   1.897       .  S
O2536      C3714   1.264       .  A
O2536     Al2537   1.922       .  S
Al2537     O2545   1.911       .  S
Al2537     O3723   1.897       .  S
C2538      O3712   1.264   1_545  A
C2538      O2551   1.261       .  A
C2538      C2993   1.495       .  S
O2539      C2549   1.263       .  A
O2539     Al2541   1.904       .  S
O2540      C3729   1.267       .  A
O2540     Al2550   1.940       .  S
Al2541     O2554   1.897       .  S
Al2541     O3722   1.781   1_545  S
O2542      C2549   1.265       .  A
O2542     Al3726   1.913   1_545  S
O2543      C2552   1.264       .  A
O2544     Al2550   1.918       .  S
O2545      C2552   1.263       .  A
O2546     Al3717   1.782       .  S
O2546     Al2550   1.787       .  S
O2547      C2548   1.263       .  A
O2547     Al3713   1.908   1_545  S
C2548      C3260   1.470       .  S
C2549      C3053   1.483       .  S
Al2550     O3718   1.914       .  S
C2552      C3293   1.472       .  S
C2553      O3716   1.267   1_545  A
C2553      O2554   1.261       .  A
C2553      C3330   1.495       .  S
N2555      C2560   1.360       .  A
N2555      C2559   1.358       .  A
N2555      H2587   1.034       .  S
N2556      C2563   1.351       .  A
N2556      C2564   1.352       .  A
N2557      C2562   1.357       .  A
N2557      C2561   1.358       .  A
N2557      H2588   1.038       .  S
N2558      C2565   1.351       .  A
N2558      C2566   1.351       .  A
C2559      C2567   1.388       .  A
C2559      C2575   1.427       .  A
C2560      C2576   1.426       .  A
C2560      C2568   1.387       .  A
C2561      C2569   1.387       .  A
C2561      C2578   1.421       .  A
C2562      C2577   1.421       .  A
C2562      C2570   1.388       .  A
C2563      C2575   1.417       .  A
C2563      C2571   1.388       .  A
C2564      C2578   1.413       .  A
C2564      C2572   1.385       .  A
C2565      C2573   1.388       .  A
C2565      C2576   1.419       .  A
C2566      C2574   1.385       .  A
C2566      C2577   1.413       .  A
C2567      C2568   1.366       .  A
C2567      H2579   1.082       .  S
C2568      H2580   1.078       .  S
C2569      C2570   1.361       .  A
C2569      H2581   1.082       .  S
C2570      H2582   1.080       .  S
C2571      C2572   1.371       .  A
C2571      H2583   1.082       .  S
C2573      C2574   1.365       .  A
C2573      H2585   1.082       .  S
C2574      H2586   1.082       .  S
C2575      C3223   1.489       .  S
C2576      C3173   1.497       .  S
C2577      C3073   1.490       .  S
C2578      C3003   1.490       .  S
N2589      C2594   1.349       .  A
N2589      C2593   1.350       .  A
N2589      H2621   1.037       .  S
N2590      C2597   1.354       .  A
N2590      C2598   1.351       .  A
N2591      C2596   1.358       .  A
N2591      C2595   1.357       .  A
N2591      H2622   1.039       .  S
N2592      C2599   1.350       .  A
N2592      C2600   1.349       .  A
C2593      C2601   1.387       .  A
C2593      C2609   1.411       .  A
C2594      C2610   1.408       .  A
C2594      C2602   1.386       .  A
C2595      C2603   1.389       .  A
C2595      C2612   1.424       .  A
C2596      C2611   1.421       .  A
C2596      C2604   1.386       .  A
C2597      C2609   1.416       .  A
C2597      C2605   1.384       .  A
C2598      C2612   1.416       .  A
C2598      C2606   1.388       .  A
C2599      C2607   1.387       .  A
C2599      C2610   1.412       .  A
C2600      C2608   1.385       .  A
C2600      C2611   1.409       .  A
C2601      C2602   1.374       .  A
C2601      H2613   1.082       .  S
C2602      H2614   1.082       .  S
C2603      C2604   1.364       .  A
C2603      H2615   1.081       .  S
C2604      H2616   1.079       .  S
C2605      C2606   1.378       .  A
C2605      H2617   1.082       .  S
C2606      H2618   1.081       .  S
C2607      C2608   1.376       .  A
C2607      H2619   1.082       .  S
C2608      H3796   1.082       .  S
C2609      C3180   1.486       .  S
C2610      C3130   1.475       .  S
C2611      C3013   1.492       .  S
C2612      C3043   1.490       .  S
H2620      C3784   1.082   1_545  S
N2623      C2628   1.350       .  A
N2623      C2627   1.351       .  A
N2623      H2655   1.043       .  S
N2624      C2631   1.352       .  A
N2624      C2632   1.347       .  A
N2625      C2630   1.357       .  A
N2625      C2629   1.350       .  A
N2625      H2656   1.038       .  S
N2626      C2633   1.348       .  A
N2626      C2634   1.350       .  A
C2627      C2635   1.385       .  A
C2627      C2643   1.409       .  A
C2628      C2644   1.414       .  A
C2628      C2636   1.389       .  A
C2629      C2637   1.386       .  A
C2629      C2646   1.415       .  A
C2630      C2645   1.422       .  A
C2630      C2638   1.390       .  A
C2631      C2643   1.409       .  A
C2631      C2639   1.384       .  A
C2632      C2646   1.412       .  A
C2632      C2640   1.389       .  A
C2633      C2641   1.383       .  A
C2633      C2644   1.407       .  A
C2634      C2642   1.390       .  A
C2634      C2645   1.418       .  A
C2635      C2636   1.377       .  A
C2635      H2647   1.081       .  S
C2636      H2648   1.082       .  S
C2637      C2638   1.372       .  A
C2637      H2649   1.083       .  S
C2638      H2650   1.078       .  S
C2639      C2640   1.377       .  A
C2639      H2651   1.082       .  S
C2640      H3828   1.083       .  S
C2641      C2642   1.366       .  A
C2641      H2653   1.082       .  S
C2643      C3140   1.490       .  S
C2644      C3210   1.491       .  S
C2645      C3030   1.496       .  S
C2646      C3063   1.473       .  S
H2652      C3816   1.083       .  S
C2657      C2960   1.566       .  S
C2657      C2970   1.563       .  S
C2657      C2980   1.567       .  S
C2657      C3380   1.567       .  S
C2658      C2930   1.596       .  S
C2658      C2940   1.565       .  S
C2658      C2953   1.579       .  S
C2658      C3390   1.589       .  S
C2659      C2903   1.576       .  S
C2659      C2910   1.569       .  S
C2659      C2920   1.572       .  S
C2659      C3403   1.563       .  S
O2660      C2675   1.266       .  A
O2660     Al3844   1.920       .  S
C2661      O2671   1.262       .  A
C2661      O2662   1.262       .  A
C2661      C2963   1.478       .  S
O2662     Al2664   1.909       .  S
O2663      C2665   1.259       .  A
Al2664     O2672   1.919       .  S
C2665      O2678   1.258       .  A
C2665      C2900   1.471       .  S
O2666      C2676   1.261       .  A
O2666     Al2668   1.909       .  S
O2667      C2680   1.265       .  A
Al2668     O3836   1.916   1_545  S
Al2668     O2681   1.910       .  S
Al2668     O3854   1.901   1_545  S
Al2668     O3849   1.792   1_545  S
O2669      C2676   1.260       .  A
O2670      C2679   1.259       .  A
O2670     Al3853   1.890       .  S
O2671     Al3853   1.906       .  S
O2672      C2679   1.262       .  A
O2673     Al3844   1.794       .  S
O2674      C2675   1.263       .  A
C2675      C3493   1.497       .  S
C2676      C2933   1.490       .  S
Al2677     O3846   1.892   1_545  S
Al2677     O3847   1.908       .  S
O2678     Al3844   1.899       .  S
C2679      C3450   1.486       .  S
C2680      O2681   1.263       .  A
C2680      C3410   1.494       .  S
C2682      C2873   1.586       .  S
C2682      C2880   1.575       .  S
C2682      C2890   1.564       .  S
C2682      C4259   1.578   1_545  S
C2683      C2840   1.575       .  S
C2683      C2850   1.570       .  S
C2683      C2860   1.576       .  S
C2684      C2810   1.562       .  S
C2684      C2820   1.567       .  S
C2684      C2830   1.556       .  S
C2684      C3093   1.552       .  S
O2685      C2700   1.263       .  A
O2685     Al2693   1.909       .  S
C2686      O2696   1.261       .  A
C2686      O2687   1.266       .  A
C2686      C2813   1.484       .  S
O2687     Al2689   1.935       .  S
O2688      C2690   1.264       .  A
O2688     Al2689   1.913       .  S
Al2689     O2697   1.917       .  S
Al2689     O2699   1.913       .  S
Al2689     O2698   1.800       .  S
C2690      O2703   1.263       .  A
C2690      C2843   1.481       .  S
O2691      C2701   1.261       .  A
O2691     Al2693   1.918       .  S
O2692      C2705   1.263       .  A
O2692     Al2702   1.897       .  S
Al2693     O2706   1.936       .  S
Al2693     O2703   1.909       .  S
Al2693     O2698   1.791       .  S
O2694      C2701   1.264       .  A
O2694     Al2702   1.937       .  S
O2695      C2704   1.266       .  A
O2695     Al2702   1.932       .  S
O2696     Al2702   1.883       .  S
O2697      C2704   1.262       .  A
O2698     Al2702   1.792       .  S
O2699      C2700   1.262       .  A
C2700      C3193   1.485       .  S
C2701      C2870   1.505       .  S
C2704      C3153   1.490       .  S
C2705      O2706   1.267       .  A
C2705      C3110   1.480       .  S
N2707      C2712   1.353       .  A
N2707      C2711   1.354       .  A
N2707      H2739   1.044       .  S
N2708      C2715   1.356       .  A
N2708      C2716   1.350       .  A
N2709      C2714   1.361       .  A
N2709      C2713   1.361       .  A
N2709      H2740   1.039       .  S
N2710      C2717   1.353       .  A
N2710      C2718   1.349       .  A
C2711      C2719   1.384       .  A
C2711      C2727   1.411       .  A
C2712      C2728   1.417       .  A
C2712      C2720   1.389       .  A
C2713      C2721   1.387       .  A
C2713      C2730   1.426       .  A
C2714      C2729   1.425       .  A
C2714      C2722   1.384       .  A
C2715      C2727   1.417       .  A
C2715      C2723   1.383       .  A
C2716      C2730   1.422       .  A
C2716      C2724   1.387       .  A
C2717      C2725   1.384       .  A
C2717      C2728   1.415       .  A
C2718      C2726   1.387       .  A
C2718      C2729   1.416       .  A
C2719      C2720   1.372       .  A
C2719      H2731   1.083       .  S
C2720      H2732   1.082       .  S
C2721      C2722   1.364       .  A
C2721      H2733   1.081       .  S
C2722      H2734   1.077       .  S
C2723      C2724   1.360       .  A
C2725      C2726   1.368       .  A
C2725      H2737   1.081       .  S
C2726      H2738   1.081       .  S
C2727      C2853   1.510       .  S
C2728      C2823   1.504       .  S
C2729      C2983   1.497       .  S
C2730      C2913   1.502       .  S
N2741      C2746   1.348       .  A
N2741      C2745   1.351       .  A
N2741      H2773   1.038       .  S
N2742      C2749   1.355       .  A
N2742      C2750   1.349       .  A
N2743      C2748   1.361       .  A
N2743      C2747   1.355       .  A
N2743      H2774   1.038       .  S
N2744      C2751   1.348       .  A
N2744      C2752   1.348       .  A
C2745      C2753   1.385       .  A
C2745      C2761   1.409       .  A
C2746      C2762   1.411       .  A
C2746      C2754   1.388       .  A
C2747      C2755   1.392       .  A
C2747      C2764   1.429       .  A
C2748      C2763   1.421       .  A
C2748      C2756   1.384       .  A
C2749      C2761   1.415       .  A
C2749      C2757   1.383   1_545  A
C2750      C2764   1.418       .  A
C2750      C2758   1.390   1_545  A
C2751      C2759   1.388       .  A
C2751      C2762   1.410       .  A
C2752      C2760   1.384       .  A
C2752      C2763   1.406       .  A
C2753      C2754   1.375       .  A
C2753      H2765   1.083       .  S
C2754      H2766   1.083       .  S
C2755      C2756   1.372       .  A
C2755      H2767   1.081       .  S
C2756      H2768   1.082       .  S
C2757      C2758   1.376       .  A
C2757      H2769   1.082       .  S
C2758      H3946   1.080       .  S
C2759      C2760   1.372       .  A
C2759      H2771   1.082       .  S
C2760      H2772   1.083       .  S
C2761      C2893   1.493       .  S
C2762      C2833   1.475       .  S
C2763      C2950   1.493       .  S
C2764      C2923   1.485   1_545  S
H2770      C3934   1.081       .  S
N2775      C2780   1.351       .  A
N2775      C2779   1.352       .  A
N2775      H2807   1.039       .  S
N2776      C2783   1.356       .  A
N2776      C2784   1.352       .  A
N2777      C2782   1.360       .  A
N2777      C2781   1.357       .  A
N2777      H2808   1.039       .  S
N2778      C2785   1.353       .  A
N2778      C2786   1.353       .  A
C2779      C2787   1.386       .  A
C2779      C2795   1.413       .  A
C2780      C2796   1.413       .  A
C2780      C2788   1.388       .  A
C2781      C2789   1.391       .  A
C2781      C2798   1.431       .  A
C2782      C2797   1.423       .  A
C2782      C2790   1.385       .  A
C2783      C2795   1.417       .  A
C2783      C2791   1.383   1_655  A
C2784      C2798   1.422       .  A
C2784      C2792   1.389       .  A
C2785      C2793   1.387   1_545  A
C2785      C2796   1.416       .  A
C2786      C2794   1.386   1_545  A
C2786      C2797   1.417       .  A
C2787      C2788   1.375       .  A
C2787      H2799   1.083       .  S
C2788      H2800   1.083       .  S
C2789      C2790   1.368       .  A
C2789      H2801   1.081       .  S
C2790      H2802   1.081       .  S
C2791      C2792   1.374   1_455  A
C2793      C2794   1.376       .  A
C2793      H3981   1.082       .  S
C2794      H2806   1.082       .  S
C2795      C2943   1.496   1_655  S
C2796      C2973   1.483   1_545  S
C2797      C2883   1.500       .  S
C2798      C2863   1.496       .  S
H2805      C3969   1.082       .  S
C2809      C2810   1.412       .  A
C2809      C2814   1.405       .  A
C2809      H2816   1.083       .  S
C2810      C2811   1.422       .  A
C2811      C2812   1.391       .  A
C2811      F2818   1.358       .  S
C2812      C2813   1.400       .  A
C2812      H2817   1.083       .  S
C2813      C2814   1.409       .  A
C2814      F2815   1.357       .  S
C2819      C2820   1.419       .  A
C2819      C2824   1.394       .  A
C2819      H2826   1.082       .  S
C2820      C2821   1.422       .  A
C2821      C2822   1.395       .  A
C2821      F2828   1.349       .  S
C2822      C2823   1.404       .  A
C2822      H2827   1.083       .  S
C2823      C2824   1.406       .  A
C2824      F2825   1.357       .  S
C2829      C2830   1.417       .  A
C2829      C2834   1.384       .  A
C2829      H2836   1.084       .  S
C2830      C2831   1.422       .  A
C2831      C2832   1.399       .  A
C2831      F2838   1.355       .  S
C2832      C2833   1.399       .  A
C2832      H2837   1.083       .  S
C2833      C2834   1.396       .  A
C2834      F2835   1.358       .  S
C2839      C2840   1.422       .  A
C2839      C2844   1.391       .  A
C2839      H2846   1.079       .  S
C2840      C2841   1.420       .  A
C2841      C2842   1.410       .  A
C2841      F2848   1.358       .  S
C2842      C2843   1.405       .  A
C2842      H2847   1.083       .  S
C2843      C2844   1.397       .  A
C2844      F2845   1.358       .  S
C2849      C2850   1.416       .  A
C2849      C2854   1.399       .  A
C2849      H2856   1.072       .  S
C2850      C2851   1.420       .  A
C2851      C2852   1.395       .  A
C2851      F2858   1.358   1_655  S
C2852      C2853   1.404       .  A
C2852      H2857   1.079       .  S
C2853      C2854   1.409       .  A
C2854      F2855   1.358       .  S
C2859      C2860   1.422       .  A
C2859      C2864   1.386       .  A
C2859      H2866   1.083       .  S
C2860      C2861   1.423       .  A
C2861      C2862   1.407       .  A
C2862      C2863   1.405       .  A
C2862      H2867   1.083   1_655  S
C2863      C2864   1.398       .  A
C2864      F2865   1.358       .  S
C2869      C2870   1.405       .  A
C2869      C2874   1.405       .  A
C2869      H2876   1.083       .  S
C2870      C2871   1.409       .  A
C2871      C2872   1.408       .  A
C2871      F2878   1.357       .  S
C2872      C2873   1.420       .  A
C2872      H2877   1.075       .  S
C2873      C2874   1.423       .  A
C2874      F2875   1.358       .  S
C2879      C2880   1.423       .  A
C2879      C2884   1.392       .  A
C2879      H2886   1.080       .  S
C2880      C2881   1.417       .  A
C2881      C2882   1.411       .  A
C2881      F4064   1.357       .  S
C2882      C2883   1.409       .  A
C2882      H2887   1.083       .  S
C2883      C2884   1.398       .  A
C2884      F2885   1.358       .  S
F2888      C4057   1.357       .  S
C2889      C2890   1.418   1_565  A
C2889      C2894   1.411       .  A
C2889      H4072   1.079       .  S
C2890      C2891   1.421       .  A
C2891      C2892   1.388       .  A
C2891      F2898   1.357       .  S
C2892      C2893   1.396       .  A
C2892      H2897   1.084       .  S
C2893      C2894   1.406   1_545  A
C2894      F4071   1.357       .  S
F2895      C4070   1.357       .  S
H2896      C4065   1.078       .  S
C2899      C2900   1.400       .  A
C2899      C2904   1.404       .  A
C2899      H2906   1.083       .  S
C2900      C2901   1.395       .  A
C2901      C2902   1.393       .  A
C2901      F2908   1.358       .  S
C2902      C2903   1.424       .  A
C2902      H2907   1.076       .  S
C2903      C2904   1.421       .  A
C2904      F2905   1.358       .  S
C2909      C2910   1.418       .  A
C2909      H2916   1.070       .  S
C2910      C2911   1.420       .  A
C2911      C2912   1.389       .  A
C2911      F2918   1.358       .  S
C2912      H2917   1.082       .  S
C2913      C2914   1.403       .  A
C2914      F2915   1.358       .  S
C2919      C2920   1.420       .  A
C2919      C2924   1.405       .  A
C2919      H2926   1.076       .  S
C2920      C2921   1.425       .  A
C2921      C4098   1.386       .  A
C2921      F2928   1.359       .  S
C2922      C4097   1.384       .  A
C2922      C2923   1.394       .  A
C2922      H2927   1.084       .  S
C2923      C4100   1.403       .  A
C2924      C4099   1.404       .  A
C2924      F2925   1.358       .  S
C2929      C2930   1.426       .  A
C2929      C2934   1.401       .  A
C2929      H2936   1.068       .  S
C2930      C2931   1.431       .  A
C2931      C2932   1.398       .  A
C2931      F2938   1.358       .  S
C2932      C2933   1.400       .  A
C2932      H2937   1.083       .  S
C2933      C2934   1.400       .  A
C2934      F2935   1.358       .  S
C2939      C2940   1.418       .  A
C2939      C2944   1.392       .  A
C2939      H2946   1.083       .  S
C2940      C2941   1.422       .  A
C2941      C2942   1.411       .  A
C2941      F2948   1.355       .  S
C2942      H2947   1.083       .  S
C2949      C2950   1.397       .  A
C2949      C2954   1.392       .  A
C2949      H2956   1.084       .  S
C2950      C2951   1.403       .  A
C2951      C2952   1.407       .  A
C2951      F2958   1.357       .  S
C2952      C2953   1.421       .  A
C2952      H2957   1.083       .  S
C2953      C2954   1.426       .  A
C2954      F2955   1.356       .  S
C2959      C2960   1.419       .  A
C2959      C2964   1.400       .  A
C2959      H2966   1.083       .  S
C2960      C2961   1.421       .  A
C2961      C2962   1.399       .  A
C2961      F2968   1.348       .  S
C2962      C2963   1.398       .  A
C2962      H2967   1.084       .  S
C2963      C2964   1.401       .  A
C2964      F2965   1.357       .  S
C2969      C2970   1.420       .  A
C2969      C2974   1.385       .  A
C2969      H2976   1.083       .  S
C2970      C2971   1.419       .  A
C2971      C4148   1.407       .  A
C2971      F2978   1.354       .  S
C2972      C4147   1.408       .  A
C2972      C2973   1.403       .  A
C2972      H2977   1.083       .  S
C2973      C4150   1.395       .  A
C2974      C4149   1.394       .  A
C2974      F2975   1.358       .  S
C2979      C2980   1.419       .  A
C2979      C2984   1.390       .  A
C2979      H2986   1.080       .  S
C2980      C2981   1.418       .  A
C2981      C2982   1.405       .  A
C2981      F2988   1.355       .  S
C2982      C2983   1.406       .  A
C2982      H2987   1.083       .  S
C2983      C2984   1.401       .  A
C2984      F2985   1.358       .  S
C2989      C2990   1.418       .  A
C2989      C2994   1.407       .  A
C2989      H2996   1.075       .  S
C2990      C2991   1.417       .  A
C2991      C2992   1.398       .  A
C2991      F2998   1.357       .  S
C2992      C2993   1.405       .  A
C2992      H2997   1.083       .  S
C2993      C2994   1.406       .  A
C2994      F2995   1.357   1_545  S
C2999      C3000   1.416       .  A
C2999      H3006   1.080       .  S
C3000      C3001   1.419       .  A
C3001      C3002   1.388       .  A
C3001      F3008   1.358       .  S
C3002      H3007   1.084   1_655  S
C3003      C3004   1.404       .  A
C3004      F3005   1.357       .  S
C3009      C3010   1.418       .  A
C3009      C3014   1.390       .  A
C3009      H3016   1.081       .  S
C3010      C3011   1.415       .  A
C3011      C4188   1.404       .  A
C3011      F3018   1.356       .  S
C3012      C4187   1.404       .  A
C3012      C3013   1.406       .  A
C3012      H3017   1.083       .  S
C3013      C4190   1.400       .  A
C3014      C4189   1.399       .  A
C3014      F3015   1.358       .  S
C3019      C3020   1.417       .  A
C3019      C3024   1.403       .  A
C3019      H3026   1.079       .  S
C3020      C3021   1.416       .  A
C3021      C3022   1.392       .  A
C3021      F3028   1.357       .  S
C3022      C3023   1.403       .  A
C3022      H3027   1.083       .  S
C3023      C3024   1.405       .  A
C3024      F3025   1.357   1_655  S
C3029      C3034   1.385       .  A
C3029      H3036   1.083       .  S
C3030      C3031   1.409       .  A
C3031      F3038   1.357       .  S
C3032      C3033   1.416       .  A
C3032      H3037   1.082       .  S
C3033      C3034   1.417       .  A
C3034      F3035   1.357       .  S
C3039      C3040   1.415       .  A
C3039      C3044   1.385       .  A
C3039      H3046   1.083       .  S
C3040      C3041   1.421       .  A
C3041      C3042   1.408       .  A
C3041      F3048   1.355       .  S
C3042      C3043   1.404       .  A
C3042      H3047   1.083       .  S
C3043      C3044   1.400       .  A
C3044      F3045   1.359       .  S
C3049      C3050   1.416       .  A
C3049      C3054   1.402       .  A
C3049      H3056   1.079       .  S
C3050      C3051   1.416       .  A
C3051      C3052   1.392       .  A
C3051      F3058   1.357       .  S
C3052      C3053   1.402       .  A
C3052      H3057   1.083       .  S
C3053      C3054   1.406       .  A
C3054      F3055   1.358       .  S
C3059      C3060   1.417       .  A
C3059      C3064   1.385       .  A
C3059      H3066   1.083       .  S
C3060      C3061   1.419       .  A
C3061      C4238   1.401       .  A
C3061      F3068   1.355       .  S
C3062      C4237   1.402       .  A
C3062      C3063   1.401       .  A
C3062      H3067   1.083       .  S
C3063      C4240   1.394       .  A
C3064      C4239   1.394   1_545  A
C3064      F3065   1.358   1_545  S
C3069      C3070   1.416       .  A
C3069      C3074   1.387       .  A
C3069      H3076   1.080       .  S
C3070      C3071   1.417       .  A
C3071      C3072   1.399       .  A
C3071      F3078   1.356       .  S
C3072      C3073   1.403       .  A
C3072      H3077   1.083       .  S
C3073      C3074   1.401       .  A
C3074      F3075   1.358       .  S
C3079      C3080   1.403       .  A
C3079      C3084   1.414       .  A
C3079      H3086   1.083       .  S
C3080      C3081   1.399       .  A
C3081      C3082   1.396       .  A
C3081      F3088   1.355       .  S
C3082      C3083   1.416       .  A
C3082      H3087   1.078       .  S
C3083      C3858   1.573       .  S
C3083      C3084   1.424       .  A
C3084      F3085   1.357       .  S
C3089      C3090   1.402       .  A
C3089      C3094   1.400       .  A
C3089      H3096   1.083       .  S
C3090      C3091   1.405       .  A
C3091      C3092   1.398       .  A
C3091      F3098   1.357       .  S
C3092      C3093   1.413       .  A
C3092      H3097   1.083       .  S
C3093      C3094   1.422       .  A
C3094      F3095   1.356       .  S
C3099      C3100   1.399       .  A
C3099      C3104   1.404       .  A
C3099      H3106   1.083       .  S
C3100      C3101   1.412       .  A
C3101      C3102   1.402       .  A
C3101      F3108   1.358       .  S
C3102      C3103   1.413       .  A
C3102      H3107   1.083       .  S
C3103      C3104   1.429       .  A
C3104      F3105   1.354       .  S
C3109      C3110   1.400       .  A
C3109      C3114   1.400       .  A
C3109      H3116   1.084       .  S
C3110      C3111   1.401       .  A
C3111      C3112   1.407       .  A
C3111      F3118   1.358       .  S
C3112      C3113   1.421       .  A
C3112      H3117   1.080       .  S
C3113      C3683   1.564   1_545  S
C3113      C3114   1.417       .  A
C3114      F3115   1.356       .  S
C3119      C3120   1.401       .  A
C3119      C3124   1.402       .  A
C3119      H3126   1.084       .  S
C3120      C3121   1.407       .  A
C3121      C3122   1.398       .  A
C3121      F3128   1.357       .  S
C3122      C3123   1.415       .  A
C3122      H3127   1.083       .  S
C3123      C3124   1.425       .  A
C3124      F3125   1.353       .  S
C3129      C3130   1.399       .  A
C3129      C3134   1.403       .  A
C3129      H3136   1.083       .  S
C3130      C3131   1.396       .  A
C3131      C3132   1.385       .  A
C3131      F3138   1.358       .  S
C3132      C3133   1.415       .  A
C3132      H3137   1.082       .  S
C3133      C3134   1.422       .  A
C3134      F3135   1.355       .  S
C3139      C3140   1.396       .  A
C3139      C3144   1.394       .  A
C3139      H3146   1.083       .  S
C3140      C3141   1.408       .  A
C3141      C3142   1.405       .  A
C3141      F3148   1.357       .  S
C3142      C3143   1.411       .  A
C3142      H3147   1.083       .  S
C3143      C3144   1.425       .  A
C3144      F3145   1.357       .  S
C3149      C3150   1.419       .  A
C3149      C3154   1.412       .  A
C3149      H3156   1.082       .  S
C3150      C3151   1.427       .  A
C3151      C3152   1.398       .  A
C3151      F3158   1.357       .  S
C3152      C3153   1.399       .  A
C3152      H3157   1.084       .  S
C3153      C3154   1.404       .  A
C3154      F3155   1.356       .  S
C3159      C3160   1.397       .  A
C3159      C3164   1.398       .  A
C3159      H3166   1.084       .  S
C3160      C3161   1.401       .  A
C3161      C3162   1.401       .  A
C3161      F3168   1.357       .  S
C3162      C3163   1.417       .  A
C3162      H3167   1.083       .  S
C3163      C3164   1.424       .  A
C3164      F3165   1.352       .  S
C3169      C3170   1.415       .  A
C3169      C3174   1.405       .  A
C3169      H3176   1.081       .  S
C3170      C3171   1.421       .  A
C3171      C3172   1.388       .  A
C3171      F3178   1.357       .  S
C3172      C3173   1.399       .  A
C3172      H3177   1.083       .  S
C3173      C3174   1.407       .  A
C3174      F3175   1.357       .  S
C3179      C3180   1.392       .  A
C3179      C3184   1.387       .  A
C3179      H3186   1.084       .  S
C3180      C3181   1.405       .  A
C3181      C3182   1.411       .  A
C3181      F3188   1.356       .  S
C3182      C3183   1.417       .  A
C3182      H3187   1.078       .  S
C3183      C3184   1.425       .  A
C3184      F3185   1.355       .  S
C3189      C3190   1.421       .  A
C3189      C3194   1.401       .  A
C3189      H3196   1.079       .  S
C3190      C3191   1.418       .  A
C3191      C3192   1.404       .  A
C3191      F3198   1.357       .  S
C3192      C3193   1.403       .  A
C3192      H3197   1.083       .  S
C3193      C3194   1.402       .  A
C3194      F3195   1.358       .  S
C3199      C3200   1.421       .  A
C3199      C3204   1.388       .  A
C3199      H3206   1.077       .  S
C3200      C3201   1.418       .  A
C3201      C3202   1.406       .  A
C3201      F3208   1.358       .  S
C3202      C3203   1.406       .  A
C3202      H3207   1.083       .  S
C3203      C3204   1.399       .  A
C3204      F3205   1.358       .  S
C3209      C3210   1.398       .  A
C3209      C3214   1.393       .  A
C3209      H3216   1.084       .  S
C3210      C3211   1.404       .  A
C3211      C3212   1.389       .  A
C3211      F3218   1.358       .  S
C3212      C3213   1.418       .  A
C3213      C3214   1.424       .  A
C3214      F3215   1.347       .  S
C3219      C3220   1.423       .  A
C3219      C3224   1.385       .  A
C3219      H3226   1.083       .  S
C3220      C3221   1.422       .  A
C3221      C3222   1.405       .  A
C3222      C3223   1.403       .  A
C3222      H3227   1.083       .  S
C3223      C3224   1.396       .  A
C3224      F3225   1.358       .  S
C3229      C3230   1.400       .  A
C3229      C3234   1.394       .  A
C3229      H3236   1.084       .  S
C3230      C3231   1.399       .  A
C3231      C3232   1.406       .  A
C3231      F3238   1.357       .  S
C3232      C3233   1.420       .  A
C3232      H3237   1.083       .  S
C3233      C3234   1.422       .  A
C3234      F3235   1.356       .  S
C3239      C3240   1.403       .  A
C3239      C3244   1.412       .  A
C3239      H3246   1.083       .  S
C3240      C3241   1.400       .  A
C3241      C3242   1.386       .  A
C3241      F3248   1.359       .  S
C3242      C3243   1.415       .  A
C3242      H3247   1.080       .  S
C3243      C3244   1.420       .  A
C3244      F3245   1.357       .  S
C3249      C3250   1.399       .  A
C3249      C3254   1.405       .  A
C3249      H3256   1.083       .  S
C3250      C3251   1.402       .  A
C3251      C3252   1.388       .  A
C3251      F3258   1.358       .  S
C3252      C3253   1.413       .  A
C3252      H3257   1.080       .  S
C3253      C3254   1.421       .  A
C3254      F3255   1.357       .  S
C3259      C3260   1.397       .  A
C3259      C3264   1.391       .  A
C3259      H3266   1.084       .  S
C3260      C3261   1.399       .  A
C3261      C3262   1.403       .  A
C3261      F3268   1.357       .  S
C3262      C3263   1.417       .  A
C3262      H3267   1.083       .  S
C3263      C3264   1.423       .  A
C3264      F3265   1.357       .  S
C3269      C3270   1.418       .  A
C3269      C3274   1.396       .  A
C3269      H3276   1.078       .  S
C3270      C3271   1.416       .  A
C3271      C3272   1.394       .  A
C3271      F3278   1.358       .  S
C3272      C3273   1.404       .  A
C3272      H3277   1.083       .  S
C3273      C3274   1.401       .  A
C3274      F3275   1.358       .  S
C3279      C3280   1.394       .  A
C3279      C3284   1.385       .  A
C3279      H3286   1.084       .  S
C3280      C3281   1.401   1_655  A
C3281      C3282   1.405   1_455  A
C3282      C3283   1.419       .  A
C3282      H3287   1.078       .  S
C3283      C3284   1.421       .  A
C3284      F3285   1.356       .  S
C3289      C3290   1.419       .  A
C3289      C3294   1.408       .  A
C3289      H3296   1.083       .  S
C3290      C3291   1.424       .  A
C3291      C3292   1.393       .  A
C3291      F3298   1.355       .  S
C3292      C3293   1.395       .  A
C3292      H3297   1.085       .  S
C3293      C3294   1.401       .  A
C3294      F3295   1.357       .  S
C3299      C3300   1.416       .  A
C3299      C3304   1.396       .  A
C3299      H3306   1.076       .  S
C3300      C3301   1.423       .  A
C3301      C3302   1.400       .  A
C3301      F3308   1.357       .  S
C3302      C3303   1.398       .  A
C3302      H3307   1.083       .  S
C3303      C3304   1.400       .  A
C3304      F3305   1.358       .  S
C3309      C3310   1.418       .  A
C3309      C3314   1.394       .  A
C3309      H3316   1.080       .  S
C3310      C3311   1.418       .  A
C3311      C3312   1.406       .  A
C3311      F3318   1.357       .  S
C3312      C3313   1.405       .  A
C3312      H3317   1.083       .  S
C3313      C3314   1.402       .  A
C3314      F3315   1.358       .  S
C3319      C3320   1.416       .  A
C3319      C3324   1.388       .  A
C3319      H3326   1.083       .  S
C3320      C3321   1.424       .  A
C3321      C3322   1.406       .  A
C3321      F3328   1.354       .  S
C3322      C3323   1.400       .  A
C3322      H3327   1.083   1_655  S
C3323      C3324   1.397       .  A
C3324      F3325   1.358       .  S
C3329      C3330   1.403       .  A
C3329      C3334   1.390       .  A
C3329      H3336   1.084       .  S
C3330      C3331   1.408       .  A
C3331      C3332   1.416       .  A
C3331      F3338   1.357       .  S
C3332      C3333   1.421       .  A
C3332      H3337   1.080       .  S
C3333      C3334   1.415       .  A
C3334      F3335   1.356       .  S
C3339      C3340   1.415       .  A
C3339      C3344   1.402       .  A
C3339      H3346   1.081       .  S
C3340      C3341   1.422       .  A
C3341      C3342   1.400       .  A
C3341      F3348   1.352       .  S
C3342      C3343   1.397       .  A
C3342      H3347   1.083       .  S
C3343      C3344   1.407       .  A
C3344      F3345   1.357       .  S
C3349      C3350   1.413       .  A
C3349      C3354   1.398       .  A
C3349      H3356   1.081       .  S
C3350      C3351   1.415       .  A
C3351      C3352   1.399       .  A
C3351      F3358   1.357       .  S
C3352      C3353   1.408       .  A
C3352      H3357   1.082       .  S
C3353      C3354   1.408       .  A
C3354      F3355   1.358       .  S
C3359      C3360   1.400       .  A
C3359      C3364   1.390       .  A
C3359      H3366   1.083       .  S
C3360      C3361   1.407       .  A
C3361      C3362   1.400       .  A
C3361      F3368   1.357       .  S
C3362      C3363   1.414       .  A
C3362      H3367   1.082       .  S
C3363      C3364   1.418       .  A
C3364      F3365   1.357       .  S
C3369      C3370   1.392       .  A
C3369      C3374   1.392       .  A
C3369      H3376   1.084       .  S
C3370      C3371   1.404       .  A
C3371      C3372   1.404       .  A
C3371      F3378   1.357       .  S
C3372      C3373   1.415       .  A
C3372      H3377   1.082       .  S
C3373      C3374   1.430       .  A
C3374      F3375   1.354       .  S
C3379      C3380   1.420       .  A
C3379      C3384   1.412       .  A
C3379      H3386   1.083       .  S
C3380      C3381   1.425       .  A
C3381      C3382   1.394       .  A
C3381      F3388   1.356       .  S
C3382      C3383   1.395       .  A
C3382      H3387   1.081       .  S
C3383      C3384   1.404       .  A
C3384      F3385   1.357       .  S
C3389      C3390   1.416       .  A
C3389      C3394   1.398       .  A
C3389      H3396   1.065       .  S
C3390      C3391   1.433       .  A
C3391      C3392   1.414       .  A
C3391      F3398   1.356       .  S
C3392      C3393   1.402       .  A
C3392      H3397   1.083       .  S
C3393      C3394   1.403       .  A
C3394      F3395   1.357       .  S
C3399      C3400   1.399       .  A
C3399      C3404   1.403       .  A
C3399      H3406   1.083       .  S
C3400      C3401   1.410       .  A
C3401      C3402   1.397       .  A
C3401      F3408   1.358       .  S
C3402      C3403   1.411       .  A
C3402      H3407   1.083       .  S
C3403      C3404   1.428       .  A
C3404      F3405   1.355       .  S
C3409      C3410   1.407       .  A
C3409      C3414   1.414       .  A
C3409      H3416   1.083       .  S
C3410      C3411   1.406       .  A
C3411      C3412   1.393       .  A
C3411      F3418   1.358       .  S
C3412      C3413   1.413       .  A
C3412      H3417   1.082       .  S
C3413      C3414   1.423       .  A
C3414      F3415   1.355       .  S
C3419      C3420   1.400       .  A
C3419      C3424   1.406       .  A
C3419      H3426   1.083       .  S
C3420      C3421   1.400       .  A
C3421      C3422   1.401       .  A
C3421      F3428   1.355       .  S
C3422      C3423   1.417       .  A
C3422      H3427   1.080       .  S
C3423      C3424   1.424       .  A
C3424      F3425   1.357       .  S
C3429      C3430   1.414       .  A
C3429      C3434   1.397       .  A
C3429      H3436   1.081       .  S
C3430      C3431   1.416       .  A
C3431      C3432   1.407       .  A
C3431      F3438   1.355       .  S
C3432      C3433   1.415       .  A
C3432      H3437   1.083       .  S
C3433      C3434   1.411       .  A
C3434      F3435   1.357       .  S
C3439      C3440   1.404       .  A
C3439      C3444   1.407       .  A
C3439      H3446   1.083       .  S
C3440      C3441   1.394       .  A
C3441      C3442   1.390       .  A
C3441      F3448   1.359       .  S
C3442      C3443   1.423       .  A
C3442      H3447   1.076       .  S
C3443      C3444   1.419       .  A
C3444      F3445   1.357       .  S
C3449      C3450   1.402       .  A
C3449      C3454   1.392       .  A
C3449      H3456   1.084       .  S
C3450      C3451   1.405       .  A
C3451      C3452   1.409       .  A
C3451      F3458   1.357       .  S
C3452      C3453   1.419       .  A
C3452      H3457   1.079       .  S
C3453      C3454   1.416       .  A
C3454      F3455   1.356       .  S
C3459      C3460   1.419       .  A
C3459      C3464   1.400       .  A
C3459      H3466   1.080       .  S
C3460      C3461   1.422       .  A
C3461      C3462   1.402       .  A
C3461      F3468   1.356       .  S
C3462      C3463   1.400       .  A
C3462      H3467   1.080       .  S
C3463      C3464   1.397       .  A
C3464      F3465   1.357       .  S
C3469      C3470   1.415       .  A
C3469      C3474   1.402       .  A
C3469      H3476   1.082       .  S
C3470      C3471   1.428       .  A
C3471      C3472   1.385       .  A
C3471      F3478   1.356       .  S
C3472      C3473   1.390       .  A
C3472      H3477   1.084       .  S
C3473      C3474   1.401       .  A
C3474      F3475   1.357       .  S
C3479      C3480   1.411       .  A
C3479      C3484   1.397       .  A
C3479      H3486   1.081       .  S
C3480      C3481   1.416       .  A
C3481      C3482   1.396       .  A
C3481      F3488   1.358       .  S
C3482      C3483   1.407       .  A
C3482      H3487   1.081       .  S
C3483      C3484   1.409       .  A
C3484      F3485   1.358       .  S
C3489      C3490   1.421       .  A
C3489      C3494   1.405       .  A
C3489      H3496   1.079       .  S
C3490      C3491   1.418       .  A
C3491      C3492   1.404       .  A
C3491      F3498   1.357       .  S
C3492      C3493   1.407       .  A
C3492      H3497   1.083       .  S
C3493      C3494   1.404       .  A
C3494      F3495   1.357       .  S
C3499      C3500   1.393       .  A
C3499      C3504   1.394       .  A
C3499      H3506   1.084       .  S
C3500      C3501   1.405       .  A
C3501      C3502   1.408       .  A
C3501      F3508   1.357       .  S
C3502      C3503   1.416       .  A
C3502      H3507   1.083       .  S
C3503      C3504   1.432       .  A
C3504      F3505   1.356       .  S
C3509      C3510   1.420       .  A
C3509      C3514   1.385       .  A
C3509      H3516   1.083       .  S
C3510      C3511   1.421       .  A
C3511      C3512   1.404       .  A
C3511      F3518   1.353       .  S
C3512      C3513   1.404       .  A
C3512      H3517   1.083       .  S
C3513      C3514   1.398       .  A
C3514      F3515   1.358       .  S
C3519      C3520   1.404       .  A
C3519      C3524   1.400       .  A
C3519      H3526   1.082       .  S
C3520      C3521   1.407       .  A
C3521      C3522   1.396       .  A
C3521      F3528   1.358       .  S
C3522      C3523   1.415       .  A
C3522      H3527   1.071       .  S
C3523      C3524   1.424       .  A
C3524      F3525   1.358       .  S
C3529      C4666   1.567       .  S
C3529      C4679   1.581       .  S
C3529      C4686   1.561       .  S
C3529      C4699   1.582       .  S
C3530      C4629   1.554       .  S
C3530      C4636   1.567       .  S
C3530      C4646   1.555       .  S
C3530      C4656   1.560       .  S
C3531      C4589   1.565       .  S
C3531      C4599   1.569       .  S
C3531      C4609   1.558       .  S
C3531      C4619   1.567       .  S
O3532      C3547   1.258       .  A
O3532     Al3540   1.895       .  S
C3533      O3543   1.261       .  A
C3533      O3534   1.259       .  A
C3533      C4596   1.476       .  S
O3534     Al3536   1.908       .  S
O3535      C3537   1.264       .  A
O3535     Al3536   1.921       .  S
Al3536     O3544   1.933       .  S
Al3536     O3546   1.920       .  S
Al3536     O3545   1.795       .  S
C3537      O3550   1.261       .  A
C3537      C4676   1.480       .  S
O3538      C3548   1.261       .  A
O3538     Al3540   1.912       .  S
O3539      C3552   1.263       .  A
O3539     Al3549   1.916       .  S
Al3540     O3553   1.917       .  S
Al3540     O3550   1.903       .  S
Al3540     O3545   1.799       .  S
O3541      C3548   1.264       .  A
O3541     Al3549   1.920       .  S
O3542      C3551   1.268       .  A
O3542     Al3549   1.938       .  S
O3543     Al3549   1.920       .  S
O3544      C3551   1.267       .  A
O3545     Al3549   1.799       .  S
O3546      C3547   1.265       .  A
C3547      C4576   1.490       .  S
C3548      C4639   1.481       .  S
C3551      C4569   1.509       .  S
C3552      O3553   1.262       .  A
C3552      C4559   1.481       .  S
N3554      C3559   1.357       .  A
N3554      C3558   1.355       .  A
N3554      H3586   1.036       .  S
N3555      C3563   1.354       .  A
N3556      C3561   1.356       .  A
N3556      C3560   1.358       .  A
N3556      H3587   1.043   1_565  S
N3557      C3565   1.352       .  A
C3558      C3566   1.384       .  A
C3558      C3574   1.418       .  A
C3559      C3575   1.428       .  A
C3559      C3567   1.392       .  A
C3560      C3568   1.387       .  A
C3560      C3577   1.421       .  A
C3561      C3576   1.417       .  A
C3561      C3569   1.386       .  A
C3562      C3574   1.412       .  A
C3562      C3570   1.386       .  A
C3563      C3577   1.417   1_545  A
C3563      C3571   1.385       .  A
C3564      C3572   1.391       .  A
C3564      C3575   1.421       .  A
C3565      C3573   1.384       .  A
C3565      C3576   1.414   1_545  A
C3566      C3567   1.372       .  A
C3566      H3578   1.083       .  S
C3567      H3579   1.080       .  S
C3568      C3569   1.373       .  A
C3568      H3580   1.082       .  S
C3569      H3581   1.083       .  S
C3570      H3582   1.082       .  S
C3571      H3583   1.081       .  S
C3572      H3584   1.079       .  S
C3573      H3585   1.082       .  S
C3574      C4546   1.484       .  S
C3575      C4536   1.493       .  S
C3576      C4659   1.497       .  S
C3577      C4696   1.513       .  S
C3588      C4509   1.570       .  S
C3588      C4516   1.572       .  S
C3588      C4526   1.562       .  S
C3588      C4549   1.561       .  S
C3589      C4466   1.562       .  S
C3589      C4476   1.563       .  S
C3589      C4486   1.568       .  S
C3589      C4496   1.562       .  S
C3590      C4439   1.556       .  S
C3590      C4446   1.558       .  S
C3590      C4459   1.555       .  S
C3590      C4539   1.556       .  S
O3591      C3606   1.262       .  A
O3591     Al3599   1.920       .  S
C3592      O3602   1.262       .  A
C3592      O3593   1.261       .  A
C3592      C4519   1.488       .  S
O3593     Al3595   1.921       .  S
O3594      C3596   1.263       .  A
O3594     Al3595   1.904       .  S
Al3595     O3603   1.909       .  S
Al3595     O3605   1.913       .  S
Al3595     O3604   1.786       .  S
C3596      O3609   1.264       .  A
C3596      C4449   1.480       .  S
O3597      C3607   1.261       .  A
O3597     Al3599   1.901       .  S
O3598      C3611   1.263       .  A
O3598     Al3608   1.922       .  S
Al3599     O3612   1.894       .  S
Al3599     O3609   1.910       .  S
Al3599     O3604   1.787       .  S
O3600      C3607   1.261       .  A
O3600     Al3608   1.904       .  S
O3601      C3610   1.263       .  A
O3601     Al3608   1.901       .  S
O3602     Al3608   1.907       .  S
O3603      C3610   1.264       .  A
O3604     Al3608   1.784       .  S
O3605      C3606   1.263       .  A
C3606      C4406   1.480       .  S
C3607      C4479   1.470       .  S
C3610      C4426   1.465       .  S
C3611      O3612   1.260       .  A
C3611      C4416   1.475       .  S
N3613      C3618   1.357       .  A
N3613      C3617   1.357       .  A
N3613      H3645   1.037       .  S
N3614      C3621   1.349   1_554  A
N3615      C3620   1.347       .  A
N3615      C3619   1.349       .  A
N3615      H3646   1.038       .  S
N3616      C3623   1.351   1_554  A
C3617      C3625   1.391       .  A
C3617      C3633   1.430       .  A
C3618      C3634   1.421       .  A
C3618      C3626   1.385       .  A
C3619      C3627   1.385       .  A
C3619      C3636   1.407       .  A
C3620      C3635   1.409       .  A
C3620      C3628   1.389       .  A
C3621      C3633   1.417       .  A
C3621      C3629   1.390       .  A
C3622      C3636   1.409       .  A
C3622      C3630   1.382       .  A
C3623      C3631   1.386       .  A
C3623      C3634   1.414       .  A
C3624      C3632   1.387       .  A
C3624      C3635   1.415       .  A
C3625      C3626   1.372       .  A
C3625      H3637   1.081       .  S
C3626      H3638   1.082       .  S
C3627      C3628   1.373       .  A
C3627      H3639   1.083       .  S
C3628      H3640   1.083       .  S
C3629      H3641   1.080       .  S
C3630      H3642   1.082       .  S
C3631      H3643   1.082       .  S
C3632      H3644   1.082       .  S
C3633      C4689   1.489       .  S
C3634      C4616   1.491       .  S
C3635      C4456   1.475   1_455  S
C3636      C4499   1.482   1_455  S
N3647      C3652   1.359       .  A
N3647      C3651   1.361       .  A
N3647      H3679   1.041       .  S
N3648      C3655   1.354       .  A
N3648      C3656   1.353   1_556  A
N3649      C3654   1.358       .  A
N3649      C3653   1.355       .  A
N3649      H3680   1.043       .  S
N3650      C3657   1.351       .  A
N3650      C3658   1.354   1_556  A
C3651      C3659   1.387       .  A
C3651      C3667   1.426       .  A
C3652      C3668   1.420       .  A
C3652      C3660   1.387       .  A
C3653      C3661   1.383       .  A
C3653      C3670   1.418       .  A
C3654      C3669   1.417       .  A
C3654      C3662   1.385       .  A
C3655      C3667   1.422       .  A
C3655      C3663   1.389       .  A
C3656      C3670   1.410       .  A
C3656      C3664   1.381       .  A
C3657      C3665   1.388       .  A
C3657      C3668   1.411       .  A
C3658      C3666   1.385       .  A
C3658      C3669   1.413       .  A
C3659      C3660   1.359       .  A
C3659      H3671   1.081       .  S
C3660      H3672   1.081       .  S
C3661      C3662   1.372       .  A
C3661      H3673   1.074       .  S
C3662      H3674   1.082       .  S
C3663      C3664   1.372   1_556  A
C3663      H3675   1.081       .  S
C3664      H3676   1.082       .  S
C3665      C3666   1.369   1_556  A
C3665      H3677   1.082       .  S
C3666      H3678   1.082       .  S
C3667      C4606   1.537       .  S
C3668      C4649   1.484       .  S
C3669      C4489   1.498       .  S
C3670      C4529   1.500       .  S
C3681      C4376   1.572       .  S
C3681      C4389   1.573       .  S
C3681      C4396   1.571       .  S
C3682      C4326   1.568       .  S
C3682      C4339   1.570       .  S
C3682      C4346   1.563       .  S
C3682      C4359   1.564       .  S
C3683      C4299   1.570       .  S
C3683      C4309   1.559       .  S
C3683      C4319   1.563       .  S
O3684      C3699   1.267       .  A
O3684     Al3692   1.928       .  S
C3685      O3695   1.267       .  A
C3685      O3686   1.268       .  A
C3685      C4296   1.496       .  S
O3686     Al3688   1.921       .  S
O3687      C3689   1.260       .  A
O3687     Al3688   1.926       .  S
Al3688     O3696   1.932       .  S
Al3688     O3698   1.925       .  S
Al3688     O3697   1.793       .  S
C3689      O3702   1.257       .  A
C3689      C4379   1.484       .  S
O3690      C3700   1.262       .  A
O3690     Al3692   1.912       .  S
O3691      C3704   1.264       .  A
O3691     Al3701   1.918       .  S
Al3692     O3705   1.901       .  S
Al3692     O3702   1.889       .  S
Al3692     O3697   1.790       .  S
O3693      C3700   1.263       .  A
O3693     Al3701   1.914       .  S
O3694      C3703   1.263       .  A
O3694     Al3701   1.927       .  S
O3695     Al3701   1.941       .  S
O3696      C3703   1.264       .  A
O3697     Al3701   1.797       .  S
O3698      C3699   1.271       .  A
C3699      C4276   1.500       .  S
C3700      C4336   1.483       .  S
C3703      C4256   1.491       .  S
C3704      O3705   1.261       .  A
C3704      C4266   1.488       .  S
C3706      C4226   1.559       .  S
C3706      C4236   1.552       .  S
C3706      C4246   1.556       .  S
C3706      C4429   1.551       .  S
C3707      C4196   1.561       .  S
C3707      C4209   1.560       .  S
C3707      C4216   1.558       .  S
C3707      C4419   1.557       .  S
C3708      C4166   1.566       .  S
C3708      C4176   1.563       .  S
C3708      C4186   1.562       .  S
C3708      C4409   1.562       .  S
O3709     Al3717   1.917       .  S
C3710      O3711   1.259       .  A
C3710      C4199   1.484       .  S
O3711     Al3713   1.890       .  S
O3712     Al3713   1.927       .  S
Al3713     O3721   1.912       .  S
C3714      O3727   1.262       .  A
C3714      C4169   1.493       .  S
O3715      C3725   1.262       .  A
O3715     Al3717   1.899       .  S
O3716     Al3726   1.939       .  S
Al3717     O3730   1.902       .  S
O3718      C3725   1.265       .  A
O3719      C3728   1.265       .  A
O3720     Al3726   1.915       .  S
O3721      C3728   1.264       .  A
O3722     Al3726   1.790       .  S
O3723      C3724   1.261       .  A
C3724      C4436   1.469       .  S
C3725      C4229   1.481       .  S
C3728      C4469   1.475       .  S
C3729      O3730   1.261       .  A
C3729      C4506   1.489       .  S
N3731      C3736   1.361       .  A
N3731      C3735   1.357       .  A
N3731      H3763   1.035       .  S
N3732      C3739   1.351       .  A
N3732      C3740   1.353       .  A
N3733      C3738   1.355       .  A
N3733      C3737   1.359       .  A
N3733      H3764   1.037       .  S
N3734      C3741   1.353       .  A
N3734      C3742   1.351       .  A
C3735      C3743   1.389       .  A
C3735      C3751   1.428       .  A
C3736      C3752   1.426       .  A
C3736      C3744   1.386       .  A
C3737      C3745   1.386       .  A
C3737      C3754   1.420       .  A
C3738      C3753   1.422       .  A
C3738      C3746   1.389       .  A
C3739      C3751   1.418       .  A
C3739      C3747   1.389       .  A
C3740      C3754   1.414       .  A
C3740      C3748   1.384       .  A
C3741      C3749   1.387       .  A
C3741      C3752   1.419       .  A
C3742      C3750   1.387       .  A
C3742      C3753   1.416       .  A
C3743      C3744   1.366       .  A
C3743      H3755   1.081       .  S
C3744      H3756   1.078       .  S
C3745      C3746   1.363       .  A
C3745      H3757   1.082       .  S
C3746      H3758   1.080       .  S
C3747      C3748   1.370       .  A
C3747      H3759   1.081       .  S
C3749      C3750   1.366       .  A
C3749      H3761   1.082       .  S
C3750      H3762   1.082       .  S
C3751      C4399   1.489       .  S
C3752      C4349   1.502       .  S
C3753      C4249   1.487       .  S
C3754      C4179   1.493       .  S
N3765      C3770   1.351       .  A
N3765      C3769   1.351       .  A
N3765      H3797   1.037       .  S
N3766      C3773   1.354       .  A
N3766      C3774   1.351       .  A
N3767      C3772   1.357       .  A
N3767      C3771   1.356       .  A
N3767      H3798   1.039       .  S
N3768      C3775   1.351       .  A
N3768      C3776   1.350       .  A
C3769      C3777   1.385       .  A
C3769      C3785   1.411       .  A
C3770      C3786   1.413       .  A
C3770      C3778   1.388       .  A
C3771      C3779   1.389       .  A
C3771      C3788   1.421       .  A
C3772      C3787   1.420       .  A
C3772      C3780   1.386       .  A
C3773      C3785   1.416       .  A
C3773      C3781   1.385       .  A
C3774      C3788   1.416       .  A
C3774      C3782   1.388       .  A
C3775      C3783   1.387       .  A
C3775      C3786   1.416       .  A
C3776      C3784   1.385       .  A
C3776      C3787   1.411       .  A
C3777      C3778   1.371       .  A
C3777      H3789   1.083       .  S
C3778      H3790   1.080       .  S
C3779      C3780   1.364       .  A
C3779      H3791   1.081       .  S
C3780      H3792   1.078       .  S
C3781      C3782   1.378       .  A
C3781      H3793   1.082       .  S
C3782      H3794   1.082       .  S
C3783      C3784   1.375       .  A
C3783      H3795   1.082   1_565  S
C3785      C4356   1.487       .  S
C3786      C4306   1.482       .  S
C3787      C4189   1.492   1_565  S
C3788      C4219   1.488       .  S
N3799      C3804   1.352       .  A
N3799      C3803   1.354       .  A
N3799      H3831   1.043       .  S
N3800      C3807   1.353       .  A
N3800      C3808   1.347       .  A
N3801      C3806   1.357       .  A
N3801      C3805   1.350       .  A
N3801      H3832   1.037       .  S
N3802      C3809   1.350       .  A
N3802      C3810   1.352       .  A
C3803      C3811   1.385       .  A
C3803      C3819   1.415       .  A
C3804      C3820   1.417       .  A
C3804      C3812   1.388       .  A
C3805      C3813   1.386       .  A
C3805      C3822   1.414       .  A
C3806      C3821   1.422       .  A
C3806      C3814   1.390       .  A
C3807      C3819   1.411       .  A
C3807      C3815   1.385       .  A
C3808      C3822   1.412       .  A
C3808      C3816   1.388   1_565  A
C3809      C3817   1.383       .  A
C3809      C3820   1.410       .  A
C3810      C3818   1.389       .  A
C3810      C3821   1.420       .  A
C3811      C3812   1.378       .  A
C3811      H3823   1.081       .  S
C3812      H3824   1.082       .  S
C3813      C3814   1.372       .  A
C3813      H3825   1.083       .  S
C3814      H3826   1.078       .  S
C3815      C3816   1.377   1_565  A
C3815      H3827   1.082   1_565  S
C3817      C3818   1.366       .  A
C3817      H3829   1.082       .  S
C3819      C4316   1.501       .  S
C3820      C4386   1.499       .  S
C3821      C4206   1.497       .  S
C3822      C4239   1.473       .  S
C3833      C4136   1.567       .  S
C3833      C4146   1.565       .  S
C3833      C4156   1.567       .  S
C3833      C4556   1.567       .  S
C3834      C4106   1.600       .  S
C3834      C4116   1.568       .  S
C3834      C4129   1.585       .  S
C3834      C4566   1.597       .  S
C3835      C4079   1.581       .  S
C3835      C4086   1.574       .  S
C3835      C4096   1.568       .  S
C3835      C4579   1.562       .  S
O3836      C3851   1.265       .  A
C3837      O3847   1.263   1_565  A
C3837      O3838   1.262       .  A
C3837      C4139   1.475       .  S
O3838     Al3840   1.910       .  S
O3839      C3841   1.259       .  A
Al3840     O3848   1.917       .  S
C3841      O3854   1.259       .  A
C3841      C4076   1.472       .  S
O3842      C3852   1.262       .  A
O3842     Al3844   1.913       .  S
O3843      C3856   1.264       .  A
Al3844     O3857   1.908       .  S
O3845      C3852   1.261       .  A
O3846      C3855   1.258       .  A
O3848      C3855   1.262       .  A
O3850      C3851   1.264       .  A
C3851      C4669   1.496       .  S
C3852      C4109   1.493       .  S
C3855      C4626   1.477       .  S
C3856      O3857   1.262       .  A
C3856      C4586   1.493       .  S
C3858      C4049   1.581       .  S
C3858      C4056   1.573       .  S
C3858      C4066   1.565       .  S
C3859      C4016   1.575       .  S
C3859      C4026   1.567       .  S
C3859      C4036   1.574       .  S
C3860      C3986   1.571       .  S
C3860      C3996   1.573       .  S
C3860      C4006   1.559       .  S
C3860      C4269   1.557       .  S
O3861      C3876   1.265       .  A
O3861     Al3869   1.915       .  S
C3862      O3872   1.263       .  A
C3862      O3863   1.268       .  A
C3862      C3989   1.492       .  S
O3863     Al3865   1.945       .  S
O3864      C3866   1.262       .  A
O3864     Al3865   1.907       .  S
Al3865     O3873   1.918       .  S
Al3865     O3875   1.914       .  S
Al3865     O3874   1.797       .  S
C3866      O3879   1.264       .  A
C3866      C4019   1.480       .  S
O3867      C3877   1.261       .  A
O3867     Al3869   1.914       .  S
O3868      C3881   1.262       .  A
O3868     Al3878   1.904       .  S
Al3869     O3882   1.939       .  S
Al3869     O3879   1.913       .  S
Al3869     O3874   1.792       .  S
O3870      C3877   1.265       .  A
O3870     Al3878   1.939       .  S
O3871      C3880   1.264       .  A
O3871     Al3878   1.926       .  S
O3872     Al3878   1.889       .  S
O3873      C3880   1.261       .  A
O3874     Al3878   1.789       .  S
O3875      C3876   1.263       .  A
C3876      C4369   1.487       .  S
C3877      C4046   1.502       .  S
C3880      C4329   1.488       .  S
C3881      O3882   1.268       .  A
C3881      C4286   1.478       .  S
N3883      C3888   1.353       .  A
N3883      C3887   1.353       .  A
N3883      H3915   1.043       .  S
N3884      C3891   1.355       .  A
N3884      C3892   1.350       .  A
N3885      C3890   1.361       .  A
N3885      C3889   1.361       .  A
N3885      H3916   1.037       .  S
N3886      C3893   1.353       .  A
N3886      C3894   1.349       .  A
C3887      C3895   1.385       .  A
C3887      C3903   1.411       .  A
C3888      C3904   1.416       .  A
C3888      C3896   1.389       .  A
C3889      C3897   1.387       .  A
C3889      C3906   1.427       .  A
C3890      C3905   1.427       .  A
C3890      C3898   1.385       .  A
C3891      C3903   1.415       .  A
C3891      C3899   1.382       .  A
C3892      C3906   1.422       .  A
C3892      C3900   1.389       .  A
C3893      C3901   1.384       .  A
C3893      C3904   1.415       .  A
C3894      C3902   1.388       .  A
C3894      C3905   1.417       .  A
C3895      C3896   1.372       .  A
C3895      H3907   1.083       .  S
C3896      H3908   1.083       .  S
C3897      C3898   1.365       .  A
C3897      H3909   1.082       .  S
C3898      H3910   1.077       .  S
C3899      C3900   1.360       .  A
C3901      C3902   1.369       .  A
C3901      H3913   1.081       .  S
C3902      H3914   1.081       .  S
C3903      C4029   1.505       .  S
C3904      C3999   1.503       .  S
C3905      C4159   1.497       .  S
C3906      C4089   1.501       .  S
N3917      C3922   1.349       .  A
N3917      C3921   1.350       .  A
N3917      H3949   1.039       .  S
N3918      C3925   1.355       .  A
N3918      C3926   1.350       .  A
N3919      C3924   1.361       .  A
N3919      C3923   1.356       .  A
N3919      H3950   1.039       .  S
N3920      C3927   1.349       .  A
N3920      C3928   1.349       .  A
C3921      C3929   1.386       .  A
C3921      C3937   1.409       .  A
C3922      C3938   1.411       .  A
C3922      C3930   1.388       .  A
C3923      C3931   1.393       .  A
C3923      C3940   1.430       .  A
C3924      C3939   1.420       .  A
C3924      C3932   1.384       .  A
C3925      C3937   1.415       .  A
C3925      C3933   1.383       .  A
C3926      C3940   1.417       .  A
C3926      C3934   1.389       .  A
C3927      C3935   1.387       .  A
C3927      C3938   1.411       .  A
C3928      C3936   1.384       .  A
C3928      C3939   1.406       .  A
C3929      C3930   1.375       .  A
C3929      H3941   1.083       .  S
C3930      H3942   1.083       .  S
C3931      C3932   1.372       .  A
C3931      H3943   1.081       .  S
C3932      H3944   1.082       .  S
C3933      C3934   1.378       .  A
C3933      H3945   1.082       .  S
C3935      C3936   1.374       .  A
C3935      H3947   1.082       .  S
C3936      H3948   1.082       .  S
C3937      C4069   1.491       .  S
C3938      C4009   1.478       .  S
C3939      C4126   1.495       .  S
C3940      C4099   1.488       .  S
N3951      C3956   1.351       .  A
N3951      C3955   1.352       .  A
N3951      H3983   1.038       .  S
N3952      C3959   1.356       .  A
N3952      C3960   1.351       .  A
N3953      C3958   1.360       .  A
N3953      C3957   1.357       .  A
N3953      H3984   1.037       .  S
N3954      C3961   1.351       .  A
N3954      C3962   1.352       .  A
C3955      C3963   1.386       .  A
C3955      C3971   1.413       .  A
C3956      C3972   1.413       .  A
C3956      C3964   1.388       .  A
C3957      C3965   1.392       .  A
C3957      C3974   1.429       .  A
C3958      C3973   1.423       .  A
C3958      C3966   1.385       .  A
C3959      C3971   1.417       .  A
C3959      C3967   1.383   1_655  A
C3960      C3974   1.421       .  A
C3960      C3968   1.389       .  A
C3961      C3969   1.387       .  A
C3961      C3972   1.414       .  A
C3962      C3970   1.386       .  A
C3962      C3973   1.415       .  A
C3963      C3964   1.374       .  A
C3963      H3975   1.083       .  S
C3964      H3976   1.082       .  S
C3965      C3966   1.370       .  A
C3965      H3977   1.081       .  S
C3966      H3978   1.082       .  S
C3967      C3968   1.375   1_455  A
C3969      C3970   1.376       .  A
C3970      H3982   1.082       .  S
C3971      C4119   1.499   1_655  S
C3972      C4149   1.481       .  S
C3973      C4059   1.498       .  S
C3974      C4039   1.492       .  S
C3985      C3986   1.413       .  A
C3985      C3990   1.410       .  A
C3985      H3992   1.083       .  S
C3986      C3987   1.424       .  A
C3987      C3988   1.393       .  A
C3987      F3994   1.358       .  S
C3988      C3989   1.401       .  A
C3988      H3993   1.083       .  S
C3989      C3990   1.411       .  A
C3990      F3991   1.357       .  S
C3995      C3996   1.423       .  A
C3995      C4000   1.396       .  A
C3995      H4002   1.081       .  S
C3996      C3997   1.423       .  A
C3997      C3998   1.394       .  A
C3997      F4004   1.347       .  S
C3998      C3999   1.403       .  A
C3998      H4003   1.084       .  S
C3999      C4000   1.404       .  A
C4000      F4001   1.358       .  S
C4005      C4006   1.417       .  A
C4005      C4010   1.386       .  A
C4005      H4012   1.084       .  S
C4006      C4007   1.423       .  A
C4007      C4008   1.400       .  A
C4007      F4014   1.355       .  S
C4008      C4009   1.399       .  A
C4008      H4013   1.083       .  S
C4009      C4010   1.397       .  A
C4010      F4011   1.358       .  S
C4015      C4016   1.424       .  A
C4015      C4020   1.391       .  A
C4015      H4022   1.078       .  S
C4016      C4017   1.419       .  A
C4017      C4018   1.409       .  A
C4017      F4024   1.358       .  S
C4018      C4019   1.405       .  A
C4018      H4023   1.083       .  S
C4019      C4020   1.396       .  A
C4020      F4021   1.358       .  S
C4025      C4026   1.415       .  A
C4025      C4030   1.400       .  A
C4025      H4032   1.073       .  S
C4026      C4027   1.421       .  A
C4027      C4028   1.392       .  A
C4027      F4034   1.359   1_655  S
C4028      C4029   1.403       .  A
C4028      H4033   1.081       .  S
C4029      C4030   1.408       .  A
C4030      F4031   1.358       .  S
C4035      C4036   1.424       .  A
C4035      C4040   1.386       .  A
C4035      H4042   1.083       .  S
C4036      C4037   1.421       .  A
C4037      C4038   1.405       .  A
C4038      C4039   1.404       .  A
C4038      H4043   1.083   1_655  S
C4039      C4040   1.397       .  A
C4040      F4041   1.359       .  S
C4045      C4046   1.406       .  A
C4045      C4050   1.405       .  A
C4045      H4052   1.083       .  S
C4046      C4047   1.408       .  A
C4047      C4048   1.405       .  A
C4047      F4054   1.357       .  S
C4048      C4049   1.419       .  A
C4048      H4053   1.076       .  S
C4049      C4050   1.422       .  A
C4050      F4051   1.358       .  S
C4055      C4056   1.421       .  A
C4055      C4060   1.393       .  A
C4055      H4062   1.079       .  S
C4056      C4057   1.418       .  A
C4057      C4058   1.410       .  A
C4058      C4059   1.407       .  A
C4058      H4063   1.083       .  S
C4059      C4060   1.398       .  A
C4060      F4061   1.358       .  S
C4065      C4066   1.419       .  A
C4065      C4070   1.410       .  A
C4066      C4067   1.421       .  A
C4067      C4068   1.388       .  A
C4067      F4074   1.357       .  S
C4068      C4069   1.396       .  A
C4068      H4073   1.084       .  S
C4069      C4070   1.405       .  A
C4075      C4076   1.401       .  A
C4075      C4080   1.406       .  A
C4075      H4082   1.083       .  S
C4076      C4077   1.394       .  A
C4077      C4078   1.391       .  A
C4077      F4084   1.359   1_565  S
C4078      C4079   1.426       .  A
C4078      H4083   1.077       .  S
C4079      C4080   1.421       .  A
C4080      F4081   1.358       .  S
C4085      C4086   1.418       .  A
C4085      H4092   1.067       .  S
C4086      C4087   1.424       .  A
C4087      C4088   1.388       .  A
C4087      F4094   1.359       .  S
C4088      H4093   1.083       .  S
C4089      C4090   1.404       .  A
C4090      F4091   1.358       .  S
C4095      C4096   1.418       .  A
C4095      C4100   1.404       .  A
C4095      H4102   1.077       .  S
C4096      C4097   1.426       .  A
C4097      F4104   1.359       .  S
C4098      C4099   1.395       .  A
C4098      H4103   1.084       .  S
C4100      F4101   1.357       .  S
C4105      C4106   1.427       .  A
C4105      C4110   1.403       .  A
C4105      H4112   1.067       .  S
C4106      C4107   1.432       .  A
C4107      C4108   1.399       .  A
C4107      F4114   1.357       .  S
C4108      C4109   1.400       .  A
C4108      H4113   1.083       .  S
C4109      C4110   1.400       .  A
C4110      F4111   1.358       .  S
C4115      C4116   1.419       .  A
C4115      C4120   1.393       .  A
C4115      H4122   1.083       .  S
C4116      C4117   1.422       .  A
C4117      C4118   1.413       .  A
C4117      F4124   1.355       .  S
C4118      H4123   1.083       .  S
C4125      C4126   1.396       .  A
C4125      C4130   1.395       .  A
C4125      H4132   1.084       .  S
C4126      C4127   1.403       .  A
C4127      C4128   1.408       .  A
C4127      F4134   1.357       .  S
C4128      C4129   1.421       .  A
C4128      H4133   1.083       .  S
C4129      C4130   1.430       .  A
C4130      F4131   1.356       .  S
C4135      C4136   1.419       .  A
C4135      C4140   1.400       .  A
C4135      H4142   1.083       .  S
C4136      C4137   1.423       .  A
C4137      C4138   1.399       .  A
C4137      F4144   1.349       .  S
C4138      C4139   1.397       .  A
C4138      H4143   1.084       .  S
C4139      C4140   1.400       .  A
C4140      F4141   1.357       .  S
C4145      C4146   1.419       .  A
C4145      C4150   1.384       .  A
C4145      H4152   1.082       .  S
C4146      C4147   1.422       .  A
C4147      F4154   1.353       .  S
C4148      C4149   1.403       .  A
C4148      H4153   1.083       .  S
C4150      F4151   1.358   1_565  S
C4155      C4156   1.420       .  A
C4155      C4160   1.391       .  A
C4155      H4162   1.079       .  S
C4156      C4157   1.418       .  A
C4157      C4158   1.405       .  A
C4157      F4164   1.355       .  S
C4158      C4159   1.406       .  A
C4158      H4163   1.083       .  S
C4159      C4160   1.401       .  A
C4160      F4161   1.358       .  S
C4165      C4166   1.418       .  A
C4165      C4170   1.407       .  A
C4165      H4172   1.075       .  S
C4166      C4167   1.418       .  A
C4167      C4168   1.395       .  A
C4167      F4174   1.357       .  S
C4168      C4169   1.404       .  A
C4168      H4173   1.083       .  S
C4169      C4170   1.407       .  A
C4170      F4171   1.357       .  S
C4175      C4176   1.415       .  A
C4175      H4182   1.080       .  S
C4176      C4177   1.421       .  A
C4177      C4178   1.390       .  A
C4177      F4184   1.358       .  S
C4178      H4183   1.084   1_655  S
C4179      C4180   1.405       .  A
C4180      F4181   1.357       .  S
C4185      C4186   1.418       .  A
C4185      C4190   1.391       .  A
C4185      H4192   1.081       .  S
C4186      C4187   1.416       .  A
C4187      F4194   1.356       .  S
C4188      C4189   1.407       .  A
C4188      H4193   1.083   1_545  S
C4190      F4191   1.358       .  S
C4195      C4196   1.418       .  A
C4195      C4200   1.406       .  A
C4195      H4202   1.078       .  S
C4196      C4197   1.416       .  A
C4197      C4198   1.388       .  A
C4197      F4204   1.357       .  S
C4198      C4199   1.401       .  A
C4198      H4203   1.083       .  S
C4199      C4200   1.407       .  A
C4200      F4201   1.357   1_655  S
C4205      C4210   1.384       .  A
C4205      H4212   1.083       .  S
C4206      C4207   1.410       .  A
C4207      F4214   1.357       .  S
C4208      C4209   1.413       .  A
C4208      H4213   1.082       .  S
C4209      C4210   1.418       .  A
C4210      F4211   1.358       .  S
C4215      C4216   1.416       .  A
C4215      C4220   1.386       .  A
C4215      H4222   1.084       .  S
C4216      C4217   1.419       .  A
C4217      C4218   1.407       .  A
C4217      F4224   1.355       .  S
C4218      C4219   1.404       .  A
C4218      H4223   1.083       .  S
C4219      C4220   1.399       .  A
C4220      F4221   1.359       .  S
C4225      C4226   1.415       .  A
C4225      C4230   1.400       .  A
C4225      H4232   1.078       .  S
C4226      C4227   1.418       .  A
C4227      C4228   1.393       .  A
C4227      F4234   1.358       .  S
C4228      C4229   1.402       .  A
C4228      H4233   1.083       .  S
C4229      C4230   1.406       .  A
C4230      F4231   1.358       .  S
C4235      C4236   1.417       .  A
C4235      C4240   1.382       .  A
C4235      H4242   1.083       .  S
C4236      C4237   1.419       .  A
C4237      F4244   1.354       .  S
C4238      C4239   1.400   1_545  A
C4238      H4243   1.083   1_545  S
C4240      F4241   1.358       .  S
C4245      C4246   1.416       .  A
C4245      C4250   1.384       .  A
C4245      H4252   1.080       .  S
C4246      C4247   1.416       .  A
C4247      C4248   1.401       .  A
C4247      F4254   1.357       .  S
C4248      C4249   1.405       .  A
C4248      H4253   1.083       .  S
C4249      C4250   1.399       .  A
C4250      F4251   1.358       .  S
C4255      C4256   1.404       .  A
C4255      C4260   1.417       .  A
C4255      H4262   1.083       .  S
C4256      C4257   1.398       .  A
C4257      C4258   1.395       .  A
C4257      F4264   1.353       .  S
C4258      C4259   1.416       .  A
C4258      H4263   1.076       .  S
C4259      C4260   1.427       .  A
C4260      F4261   1.356       .  S
C4265      C4266   1.402       .  A
C4265      C4270   1.402       .  A
C4265      H4272   1.083       .  S
C4266      C4267   1.407       .  A
C4267      C4268   1.401       .  A
C4267      F4274   1.358       .  S
C4268      C4269   1.414       .  A
C4268      H4273   1.083       .  S
C4269      C4270   1.423       .  A
C4270      F4271   1.355       .  S
C4275      C4276   1.401       .  A
C4275      C4280   1.405       .  A
C4275      H4282   1.083       .  S
C4276      C4277   1.412       .  A
C4277      C4278   1.404       .  A
C4277      F4284   1.358       .  S
C4278      C4279   1.414       .  A
C4278      H4283   1.083       .  S
C4279      C4280   1.428       .  A
C4280      F4281   1.355       .  S
C4285      C4286   1.399       .  A
C4285      C4290   1.400       .  A
C4285      H4292   1.084       .  S
C4286      C4287   1.399       .  A
C4287      C4288   1.406       .  A
C4287      F4294   1.357       .  S
C4288      C4289   1.419       .  A
C4288      H4293   1.081       .  S
C4289      C4290   1.422       .  A
C4290      F4291   1.356       .  S
C4295      C4296   1.399       .  A
C4295      C4300   1.402       .  A
C4295      H4302   1.084       .  S
C4296      C4297   1.410       .  A
C4297      C4298   1.407       .  A
C4297      F4304   1.356       .  S
C4298      C4299   1.415       .  A
C4298      H4303   1.081       .  S
C4299      C4300   1.424       .  A
C4300      F4301   1.353       .  S
C4305      C4306   1.401       .  A
C4305      C4310   1.401       .  A
C4305      H4312   1.083       .  S
C4306      C4307   1.397       .  A
C4307      C4308   1.389       .  A
C4307      F4314   1.358       .  S
C4308      C4309   1.417       .  A
C4308      H4313   1.080       .  S
C4309      C4310   1.420       .  A
C4310      F4311   1.356       .  S
C4315      C4316   1.404       .  A
C4315      C4320   1.400       .  A
C4315      H4322   1.082       .  S
C4316      C4317   1.409       .  A
C4317      C4318   1.401       .  A
C4317      F4324   1.357       .  S
C4318      C4319   1.411       .  A
C4318      H4323   1.081       .  S
C4319      C4320   1.419       .  A
C4320      F4321   1.358   1_565  S
C4325      C4326   1.420       .  A
C4325      C4330   1.412       .  A
C4325      H4332   1.082       .  S
C4326      C4327   1.425       .  A
C4327      C4328   1.396       .  A
C4327      F4334   1.356       .  S
C4328      C4329   1.399       .  A
C4328      H4333   1.084       .  S
C4329      C4330   1.404       .  A
C4330      F4331   1.357       .  S
C4335      C4336   1.398       .  A
C4335      C4340   1.400       .  A
C4335      H4342   1.084       .  S
C4336      C4337   1.403       .  A
C4337      C4338   1.405       .  A
C4337      F4344   1.357       .  S
C4338      C4339   1.419       .  A
C4338      H4343   1.083       .  S
C4339      C4340   1.424       .  A
C4340      F4341   1.352       .  S
C4345      C4346   1.416       .  A
C4345      C4350   1.406       .  A
C4345      H4352   1.081       .  S
C4346      C4347   1.421       .  A
C4347      C4348   1.390       .  A
C4347      F4354   1.357       .  S
C4348      C4349   1.400       .  A
C4348      H4353   1.083       .  S
C4349      C4350   1.408       .  A
C4350      F4351   1.357       .  S
C4355      C4356   1.393       .  A
C4355      C4360   1.387       .  A
C4355      H4362   1.084       .  S
C4356      C4357   1.405       .  A
C4357      C4358   1.411       .  A
C4357      F4364   1.357       .  S
C4358      C4359   1.418       .  A
C4358      H4363   1.079       .  S
C4359      C4360   1.423       .  A
C4360      F4361   1.355       .  S
C4365      C4366   1.420       .  A
C4365      C4370   1.401       .  A
C4365      H4372   1.079       .  S
C4366      C4367   1.418       .  A
C4367      C4368   1.406       .  A
C4367      F4374   1.357       .  S
C4368      C4369   1.404       .  A
C4368      H4373   1.083       .  S
C4369      C4370   1.402       .  A
C4370      F4371   1.358       .  S
C4375      C4376   1.422       .  A
C4375      C4380   1.391       .  A
C4375      H4382   1.077       .  S
C4376      C4377   1.417       .  A
C4377      C4378   1.406       .  A
C4377      F4384   1.358       .  S
C4378      C4379   1.407       .  A
C4378      H4383   1.083       .  S
C4379      C4380   1.400       .  A
C4380      F4381   1.358       .  S
C4385      C4386   1.400       .  A
C4385      C4390   1.396       .  A
C4385      H4392   1.083       .  S
C4386      C4387   1.406       .  A
C4387      C4388   1.391       .  A
C4387      F4394   1.358       .  S
C4388      C4389   1.418       .  A
C4389      C4390   1.425       .  A
C4390      F4391   1.348       .  S
C4395      C4396   1.423       .  A
C4395      C4400   1.386       .  A
C4395      H4402   1.083       .  S
C4396      C4397   1.421       .  A
C4397      C4398   1.403       .  A
C4398      C4399   1.403       .  A
C4398      H4403   1.083       .  S
C4399      C4400   1.397       .  A
C4400      F4401   1.358       .  S
C4405      C4406   1.397       .  A
C4405      C4410   1.392       .  A
C4405      H4412   1.085       .  S
C4406      C4407   1.402       .  A
C4407      C4408   1.409       .  A
C4407      F4414   1.357       .  S
C4408      C4409   1.420       .  A
C4408      H4413   1.083       .  S
C4409      C4410   1.424       .  A
C4410      F4411   1.356       .  S
C4415      C4416   1.403       .  A
C4415      C4420   1.411       .  A
C4415      H4422   1.083       .  S
C4416      C4417   1.399       .  A
C4417      C4418   1.386       .  A
C4417      F4424   1.359       .  S
C4418      C4419   1.416       .  A
C4418      H4423   1.080       .  S
C4419      C4420   1.420       .  A
C4420      F4421   1.357       .  S
C4425      C4426   1.398       .  A
C4425      C4430   1.403       .  A
C4425      H4432   1.083       .  S
C4426      C4427   1.400       .  A
C4427      C4428   1.387       .  A
C4427      F4434   1.359       .  S
C4428      C4429   1.414       .  A
C4428      H4433   1.079       .  S
C4429      C4430   1.421       .  A
C4430      F4431   1.357       .  S
C4435      C4436   1.397       .  A
C4435      C4440   1.387       .  A
C4435      H4442   1.085       .  S
C4436      C4437   1.400       .  A
C4437      C4438   1.405       .  A
C4437      F4444   1.357       .  S
C4438      C4439   1.418       .  A
C4438      H4443   1.083       .  S
C4439      C4440   1.421       .  A
C4440      F4441   1.356       .  S
C4445      C4446   1.418       .  A
C4445      C4450   1.400       .  A
C4445      H4452   1.078       .  S
C4446      C4447   1.417       .  A
C4447      C4448   1.393       .  A
C4447      F4454   1.358       .  S
C4448      C4449   1.402       .  A
C4448      H4453   1.083       .  S
C4449      C4450   1.404       .  A
C4450      F4451   1.358       .  S
C4455      C4456   1.395       .  A
C4455      C4460   1.385       .  A
C4455      H4462   1.084       .  S
C4456      C4457   1.398       .  A
C4457      C4458   1.400       .  A
C4458      C4459   1.418       .  A
C4458      H4463   1.078       .  S
C4459      C4460   1.421       .  A
C4460      F4461   1.358       .  S
C4465      C4466   1.420       .  A
C4465      C4470   1.408       .  A
C4465      H4472   1.083       .  S
C4466      C4467   1.423       .  A
C4467      C4468   1.395       .  A
C4467      F4474   1.355       .  S
C4468      C4469   1.396       .  A
C4468      H4473   1.084       .  S
C4469      C4470   1.401       .  A
C4470      F4471   1.357       .  S
C4475      C4476   1.416       .  A
C4475      C4480   1.396       .  A
C4475      H4482   1.077       .  S
C4476      C4477   1.424       .  A
C4477      C4478   1.399       .  A
C4477      F4484   1.357       .  S
C4478      C4479   1.397       .  A
C4478      H4483   1.083       .  S
C4479      C4480   1.400       .  A
C4480      F4481   1.358       .  S
C4485      C4486   1.417       .  A
C4485      C4490   1.394       .  A
C4485      H4492   1.079       .  S
C4486      C4487   1.419       .  A
C4487      C4488   1.406       .  A
C4487      F4494   1.357       .  S
C4488      C4489   1.405       .  A
C4488      H4493   1.083       .  S
C4489      C4490   1.402       .  A
C4490      F4491   1.358       .  S
C4495      C4496   1.417       .  A
C4495      C4500   1.388       .  A
C4495      H4502   1.083       .  S
C4496      C4497   1.424       .  A
C4497      C4498   1.404       .  A
C4497      F4504   1.354       .  S
C4498      C4499   1.399       .  A
C4498      H4503   1.083   1_655  S
C4499      C4500   1.397       .  A
C4500      F4501   1.358       .  S
C4505      C4506   1.401       .  A
C4505      C4510   1.396       .  A
C4505      H4512   1.084       .  S
C4506      C4507   1.403       .  A
C4507      C4508   1.413       .  A
C4507      F4514   1.357       .  S
C4508      C4509   1.422       .  A
C4508      H4513   1.081       .  S
C4509      C4510   1.421       .  A
C4510      F4511   1.357       .  S
C4515      C4516   1.417       .  A
C4515      C4520   1.402       .  A
C4515      H4522   1.083       .  S
C4516      C4517   1.423       .  A
C4517      C4518   1.397       .  A
C4517      F4524   1.345       .  S
C4518      C4519   1.397       .  A
C4518      H4523   1.083       .  S
C4519      C4520   1.407       .  A
C4520      F4521   1.357       .  S
C4525      C4526   1.412       .  A
C4525      C4530   1.408       .  A
C4525      H4532   1.082       .  S
C4526      C4527   1.421       .  A
C4527      C4528   1.396       .  A
C4527      F4534   1.357       .  S
C4528      C4529   1.400       .  A
C4528      H4533   1.083       .  S
C4529      C4530   1.409       .  A
C4530      F4531   1.357       .  S
C4535      C4536   1.398       .  A
C4535      C4540   1.388       .  A
C4535      H4542   1.083       .  S
C4536      C4537   1.408       .  A
C4537      C4538   1.401       .  A
C4537      F4544   1.358       .  S
C4538      C4539   1.414       .  A
C4538      H4543   1.082       .  S
C4539      C4540   1.419       .  A
C4540      F4541   1.357       .  S
C4545      C4546   1.391       .  A
C4545      C4550   1.390       .  A
C4545      H4552   1.084       .  S
C4546      C4547   1.404       .  A
C4547      C4548   1.406       .  A
C4547      F4554   1.357       .  S
C4548      C4549   1.415       .  A
C4548      H4553   1.079       .  S
C4549      C4550   1.425       .  A
C4550      F4551   1.354       .  S
C4555      C4556   1.419       .  A
C4555      C4560   1.410       .  A
C4555      H4562   1.083       .  S
C4556      C4557   1.426       .  A
C4557      C4558   1.396       .  A
C4557      F4564   1.356       .  S
C4558      C4559   1.397       .  A
C4558      H4563   1.084       .  S
C4559      C4560   1.402       .  A
C4560      F4561   1.357       .  S
C4565      C4566   1.418       .  A
C4565      C4570   1.402       .  A
C4565      H4572   1.065       .  S
C4566      C4567   1.434       .  A
C4567      C4568   1.418       .  A
C4567      F4574   1.355       .  S
C4568      C4569   1.405       .  A
C4568      H4573   1.083       .  S
C4569      C4570   1.404       .  A
C4570      F4571   1.357       .  S
C4575      C4576   1.400       .  A
C4575      C4580   1.404       .  A
C4575      H4582   1.083       .  S
C4576      C4577   1.410       .  A
C4577      C4578   1.397       .  A
C4577      F4584   1.358       .  S
C4578      C4579   1.411       .  A
C4578      H4583   1.083       .  S
C4579      C4580   1.428       .  A
C4580      F4581   1.355       .  S
C4585      C4586   1.406       .  A
C4585      C4590   1.414       .  A
C4585      H4592   1.083       .  S
C4586      C4587   1.406       .  A
C4587      C4588   1.393       .  A
C4587      F4594   1.358       .  S
C4588      C4589   1.413       .  A
C4588      H4593   1.082       .  S
C4589      C4590   1.423       .  A
C4590      F4591   1.355       .  S
C4595      C4596   1.397       .  A
C4595      C4600   1.403       .  A
C4595      H4602   1.083       .  S
C4596      C4597   1.400       .  A
C4597      C4598   1.400       .  A
C4597      F4604   1.355       .  S
C4598      C4599   1.416       .  A
C4598      H4603   1.080       .  S
C4599      C4600   1.425       .  A
C4600      F4601   1.356       .  S
C4605      C4606   1.413       .  A
C4605      C4610   1.398       .  A
C4605      H4612   1.081       .  S
C4606      C4607   1.416       .  A
C4607      C4608   1.405       .  A
C4607      F4614   1.356       .  S
C4608      C4609   1.414       .  A
C4608      H4613   1.083       .  S
C4609      C4610   1.413       .  A
C4610      F4611   1.357       .  S
C4615      C4616   1.403       .  A
C4615      C4620   1.407       .  A
C4615      H4622   1.083       .  S
C4616      C4617   1.395       .  A
C4617      C4618   1.392       .  A
C4617      F4624   1.359       .  S
C4618      C4619   1.423       .  A
C4618      H4623   1.076       .  S
C4619      C4620   1.419       .  A
C4620      F4621   1.357       .  S
C4625      C4626   1.401       .  A
C4625      C4630   1.393       .  A
C4625      H4632   1.084       .  S
C4626      C4627   1.400       .  A
C4627      C4628   1.406       .  A
C4627      F4634   1.357       .  S
C4628      C4629   1.419       .  A
C4628      H4633   1.080       .  S
C4629      C4630   1.418       .  A
C4630      F4631   1.357       .  S
C4635      C4636   1.417       .  A
C4635      C4640   1.402       .  A
C4635      H4642   1.078       .  S
C4636      C4637   1.422       .  A
C4637      C4638   1.403       .  A
C4637      F4644   1.357       .  S
C4638      C4639   1.399       .  A
C4638      H4643   1.083       .  S
C4639      C4640   1.402       .  A
C4640      F4641   1.358       .  S
C4645      C4646   1.416       .  A
C4645      C4650   1.404       .  A
C4645      H4652   1.080       .  S
C4646      C4647   1.421       .  A
C4647      C4648   1.385       .  A
C4647      F4654   1.357       .  S
C4648      C4649   1.393       .  A
C4648      H4653   1.084       .  S
C4649      C4650   1.403       .  A
C4650      F4651   1.357       .  S
C4655      C4656   1.411       .  A
C4655      C4660   1.403       .  A
C4655      H4662   1.081       .  S
C4656      C4657   1.420       .  A
C4657      C4658   1.392       .  A
C4657      F4664   1.358       .  S
C4658      C4659   1.401       .  A
C4658      H4663   1.083       .  S
C4659      C4660   1.408       .  A
C4660      F4661   1.357       .  S
C4665      C4666   1.420       .  A
C4665      C4670   1.406       .  A
C4665      H4672   1.079       .  S
C4666      C4667   1.419       .  A
C4667      C4668   1.403       .  A
C4667      F4674   1.357       .  S
C4668      C4669   1.406       .  A
C4668      H4673   1.083       .  S
C4669      C4670   1.405       .  A
C4670      F4671   1.357   1_565  S
C4675      C4676   1.392       .  A
C4675      C4680   1.395       .  A
C4675      H4682   1.084       .  S
C4676      C4677   1.405       .  A
C4677      C4678   1.408       .  A
C4677      F4684   1.357       .  S
C4678      C4679   1.415       .  A
C4678      H4683   1.083       .  S
C4679      C4680   1.435       .  A
C4680      F4681   1.356       .  S
C4685      C4686   1.420       .  A
C4685      C4690   1.386       .  A
C4685      H4692   1.083       .  S
C4686      C4687   1.421       .  A
C4687      C4688   1.404       .  A
C4687      F4694   1.353       .  S
C4688      C4689   1.405       .  A
C4688      H4693   1.083       .  S
C4689      C4690   1.397       .  A
C4690      F4691   1.358       .  S
C4695      C4696   1.405       .  A
C4695      C4700   1.400       .  A
C4695      H4702   1.082       .  S
C4696      C4697   1.407       .  A
C4697      C4698   1.400       .  A
C4697      F4704   1.358       .  S
C4698      C4699   1.417       .  A
C4698      H4703   1.069       .  S
C4699      C4700   1.425       .  A
C4700      F4701   1.358       .  S
