geometry optimzed in LAMMPS
_audit_creation_date              2020-11-30 
_audit_creation_method            'lammps2cif' 
_symmetry_space_group_name_H-M    'P1' 
_symmetry_Int_Tables_number       1 
_symmetry_cell_setting            triclinic 
loop_ 
_symmetry_equiv_pos_as_xyz 
  x,y,z 
_cell_length_a                    48.49638270396509 
_cell_length_b                    48.42986322917184 
_cell_length_c                    48.60019761922634 
_cell_angle_alpha                 90.28664192572737 
_cell_angle_beta                  89.64431749575866 
_cell_angle_gamma                 89.79176594470476 
loop_ 
_atom_site_label 
_atom_site_type_symbol 
_atom_site_fract_x 
_atom_site_fract_y 
_atom_site_fract_z 
_atom_site_charge 
O1          O  0.09801338  0.54049586  0.50925277    -0.72820
O2          O  0.09831899  0.46464526  0.48310079    -0.73810
O3          O  0.09499115  0.51535308  0.45876922    -0.62420
O4          O  0.09981206  0.49196773  0.53640934    -0.70840
O5          O  0.05975760  0.46970982  0.53194370    -0.70390
O6          O  0.05046284  0.50530171  0.45451921    -0.61640
O7          O  0.06124480  0.45659147  0.50881930    -0.74150
O8          O  0.05368704  0.53616938  0.51903552    -0.72930
Cu9        Cu  0.09752214  0.50301149  0.49696986     1.04560
Cu10       Cu  0.02708753  0.49605536  0.50491035     1.04330
C11         C  0.07609859  0.55002311  0.51937722     0.93370
C12         C  0.08042755  0.44788401  0.49168978     0.92510
C13         C  0.07341595  0.51347810  0.44438143     0.84660
C14         C  0.08071080  0.47798691  0.54749237     0.90930
O15         O  0.53714653  0.94299858  0.53763637    -0.72820
O16         O  0.55901626  0.94696514  0.45924023    -0.73810
O17         O  0.58557358  0.94571951  0.50867341    -0.62420
O18         O  0.50892762  0.94274092  0.48528562    -0.70840
O19         O  0.50080908  0.98102628  0.50948482    -0.70390
O20         O  0.58098402  0.98963789  0.52030750    -0.61640
O21         O  0.54855328  0.99155301  0.45508143    -0.74150
O22         O  0.51394666  0.98266871  0.53269617    -0.72930
Cu23       Cu  0.54764089  0.94482921  0.49786290     1.04560
Cu24       Cu  0.54055780  0.01516191  0.50553517     1.04330
C25         C  0.52204889  0.96167882  0.54830359     0.93370
C26         C  0.55665465  0.96849325  0.44479926     0.92510
C27         C  0.59528296  0.96739931  0.51908538     0.84660
C28         C  0.49223424  0.96115911  0.49327087     0.90930
O29         O  0.98814530  0.54254618  0.49086692    -0.72820
O30         O  0.98528023  0.46513653  0.51229982    -0.73810
O31         O  0.98944953  0.51415338  0.53969236    -0.62420
O32         O  0.98576750  0.49505419  0.45996144    -0.70840
O33         O  0.02459318  0.47057551  0.46501720    -0.70390
O34         O  0.03409604  0.50468001  0.54356536    -0.61640
O35         O  0.02288241  0.45703301  0.48748290    -0.74150
O36         O  0.03205315  0.53771237  0.47938671    -0.72930
Cu37       Cu  0.98739398  0.50416142  0.50048397     1.04560
Cu38       Cu  0.05755858  0.49619664  0.49282535     1.04330
C39         C  0.00989214  0.55218499  0.48064583     0.93370
C40         C  0.00363387  0.44830551  0.50445030     0.92510
C41         C  0.01089550  0.51188753  0.55431962     0.84660
C42         C  0.00449277  0.48012776  0.44906984     0.90930
O43         O  0.49823901  0.49570509  0.00831885    -0.72820
O44         O  0.57524462  0.53057943  0.01734806    -0.73810
O45         O  0.56298224  0.46169158  0.00938056    -0.62420
O46         O  0.55075236  0.54252779  0.02024077    -0.70840
O47         O  0.52689562  0.53329638  0.05787468    -0.70390
O48         O  0.55549959  0.45774087  0.05393514    -0.61640
O49         O  0.58123927  0.50768394  0.05673084    -0.74150
O50         O  0.50379345  0.48238844  0.05177666    -0.72930
Cu51       Cu  0.54861685  0.50258099  0.98476919     1.04560
Cu52       Cu  0.54195851  0.49523525  0.05480548     1.04330
C53         C  0.48832964  0.48661904  0.03120825     0.93370
C54         C  0.59155836  0.52257655  0.03786862     0.92510
C55         C  0.56461740  0.44802161  0.03164628     0.84660
C56         C  0.53427621  0.55061688  0.04008887     0.90930
N57         N  0.33222305  0.44083794  0.05444087    -0.27170
N58         N  0.34538770  0.42150716  0.06842068    -0.35030
C59         C  0.37266945  0.42508272  0.06545597     0.01170
C60         C  0.37715243  0.44761809  0.04873649     0.07190
C61         C  0.35106093  0.45709431  0.04195241    -0.05900
H62         H  0.38816620  0.41287049  0.07577778     0.07860
H63         H  0.34617511  0.47546050  0.03035010     0.09060
Cu64       Cu  0.32703384  0.39285299  0.09418337     0.44170
Cu65       Cu  0.28939009  0.44634304  0.05653570     0.41990
Cu66       Cu  0.25714439  0.40672630  0.11136614     0.43880
N67         N  0.30550422  0.37013991  0.12318131    -0.34560
N68         N  0.27976995  0.37605974  0.13008110    -0.28810
C69         C  0.27163252  0.35923713  0.15042779    -0.04910
C70         C  0.29329014  0.34177783  0.15656113     0.07300
C71         C  0.31446029  0.34914583  0.13886087     0.01100
H72         H  0.25146117  0.35976617  0.16005267     0.08750
H73         H  0.33502799  0.34044869  0.13794800     0.07830
N74         N  0.23642418  0.43533871  0.08786115    -0.36010
N75         N  0.24747721  0.44893765  0.06701776    -0.28190
C76         C  0.22722747  0.46270227  0.05397450    -0.03430
C77         C  0.20253319  0.45801765  0.06773646     0.05180
C78         C  0.20917468  0.44034636  0.08885796     0.03280
H79         H  0.22995600  0.47395962  0.03498315     0.08380
H80         H  0.19488817  0.42996583  0.10247410     0.07220
N81         N  0.09909528  0.43840308  0.70456599    -0.27170
N82         N  0.11440424  0.41890895  0.69282323    -0.35030
C83         C  0.11253233  0.42089771  0.66541585     0.01170
C84         C  0.09505142  0.44242344  0.65945771     0.07190
C85         C  0.08683985  0.45325028  0.68463196    -0.05900
H86         H  0.12400488  0.40828297  0.65087050     0.07860
H87         H  0.07408268  0.47131205  0.68815928     0.09060
Cu88       Cu  0.14014271  0.39192633  0.71286166     0.44170
Cu89       Cu  0.09820591  0.44540101  0.74696904     0.41990
Cu90       Cu  0.15334740  0.40695967  0.78174546     0.43880
N91         N  0.16939282  0.37063690  0.73475779    -0.34560
N92         N  0.17526475  0.37702205  0.76046643    -0.28810
C93         C  0.19577458  0.36055649  0.76919076    -0.04910
C94         C  0.20292768  0.34289016  0.74783209     0.07300
C95         C  0.18578125  0.34980994  0.72632212     0.01100
H96         H  0.20448294  0.36113525  0.78962518     0.08750
H97         H  0.18543245  0.34066258  0.70597306     0.07830
N98         N  0.12527131  0.43274102  0.80118522    -0.36010
N99         N  0.10492471  0.44643756  0.78932907    -0.28190
C100        C  0.08926500  0.45844281  0.80914467    -0.03430
C101        C  0.10027527  0.45159840  0.83447896     0.05180
C102        C  0.12310211  0.43552663  0.82852767     0.03280
H103        H  0.07038973  0.46977694  0.80546753     0.08380
H104        H  0.13649737  0.42539903  0.84308966     0.07220
N105        N  0.98621290  0.44206243  0.28998102    -0.27170
N106        N  0.97372447  0.42118532  0.30232164    -0.35030
C107        C  0.97641006  0.42369174  0.32965408     0.01170
C108        C  0.99090008  0.44743161  0.33524588     0.07190
C109        C  0.99679500  0.45878103  0.30964659    -0.05900
H110        H  0.96750502  0.40968610  0.34450986     0.07860
H111        H  0.00796874  0.47765006  0.30565740     0.09060
Cu112      Cu  0.94989197  0.39146911  0.28349623     0.44170
Cu113      Cu  0.98758240  0.44610968  0.24671680     0.41990
Cu114      Cu  0.93479131  0.40344221  0.21438319     0.43880
N115        N  0.92011818  0.36926266  0.26298806    -0.34560
N116        N  0.91367657  0.37469563  0.23724770    -0.28810
C117        C  0.89273570  0.35840453  0.22950507    -0.04910
C118        C  0.88577620  0.34183046  0.25151866     0.07300
C119        C  0.90355178  0.34918605  0.27243948     0.01100
H120        H  0.88349157  0.35847430  0.20930317     0.08750
H121        H  0.90409501  0.34096415  0.29308725     0.07830
N122        N  0.96155554  0.42837197  0.19293805    -0.36010
N123        N  0.98176479  0.44307611  0.20374869    -0.28190
C124        C  0.99637385  0.45444000  0.18288986    -0.03430
C125        C  0.98424264  0.44684888  0.15807900     0.05180
C126        C  0.96241183  0.43026230  0.16543613     0.03280
H127        H  0.01444707  0.46719257  0.18551783     0.08380
H128        H  0.94873842  0.41929479  0.15172845     0.07220
O129        O  0.05551216  0.48963143  0.95796256    -0.72820
O130        O  0.01114105  0.47882549  0.02860366    -0.73810
O131        O  0.07753769  0.49111157  0.02814590    -0.62420
O132        O  0.99987418  0.48436537  0.00180345    -0.70840
O133        O  0.00814001  0.44315913  0.98203224    -0.70390
O134        O  0.08351886  0.44845834  0.01069769    -0.61640
O135        O  0.03475890  0.44088647  0.03516901    -0.74150
O136        O  0.05952059  0.44458864  0.95982466    -0.72930
Cu137      Cu  0.03887753  0.51532764  0.99839774     1.04560
Cu138      Cu  0.04637390  0.44445637  0.99671678     1.04330
C139        C  0.06152309  0.46655482  0.94647579     0.93370
C140        C  0.01912468  0.45924482  0.04467656     0.92510
C141        C  0.09187351  0.46851230  0.02539025     0.84660
C142        C  0.99154755  0.46300073  0.98702579     0.90930
N143        N  0.83864656  0.55510573  0.05883460    -0.27170
N144        N  0.84891661  0.57080860  0.07861626    -0.35030
C145        C  0.87650810  0.57048461  0.07741580     0.01170
C146        C  0.88473449  0.55353663  0.05611739     0.07190
C147        C  0.86019378  0.54389372  0.04465507    -0.05900
H148        H  0.88971191  0.58239255  0.09081952     0.07860
H149        H  0.85822858  0.53080938  0.02667204     0.09060
Cu150      Cu  0.82690526  0.59480960  0.10579893     0.44170
Cu151      Cu  0.79523342  0.55305883  0.05203729     0.41990
Cu152      Cu  0.75846995  0.60830659  0.09126141     0.43880
N153        N  0.80477925  0.62352087  0.12783264    -0.34560
N154        N  0.77906431  0.62966978  0.12166457    -0.28810
C155        C  0.77022202  0.65013143  0.13834691    -0.04910
C156        C  0.79157000  0.65692653  0.15587256     0.07300
C157        C  0.81315420  0.63964025  0.14867627     0.01100
H158        H  0.74981271  0.65920117  0.13785577     0.08750
H159        H  0.83358565  0.63917269  0.15747920     0.07830
N160        N  0.73963663  0.58059929  0.06501723    -0.36010
N161        N  0.75168272  0.55987830  0.05158789    -0.28190
C162        C  0.73157226  0.54468767  0.03957532    -0.03430
C163        C  0.70609397  0.55686933  0.04548307     0.05180
C164        C  0.71220629  0.57931139  0.06176005     0.03280
H165        H  0.73507379  0.52566339  0.02830474     0.08380
H166        H  0.69756029  0.59289596  0.07193644     0.07220
N167        N  0.98876013  0.55790579  0.71047203    -0.27170
N168        N  0.97440023  0.57702071  0.69737856    -0.35030
C169        C  0.97757661  0.57340888  0.67012886     0.01170
C170        C  0.99492862  0.55116760  0.66563065     0.07190
C171        C  0.00171599  0.54177937  0.69163275    -0.05900
H172        H  0.96689878  0.58527992  0.65466032     0.07860
H173        H  0.01362982  0.52352041  0.69643978     0.09060
Cu174      Cu  0.94795511  0.60537689  0.71586925     0.44170
Cu175      Cu  0.98643667  0.55223750  0.75317144     0.41990
Cu176      Cu  0.93165642  0.59262796  0.78600480     0.43880
N177        N  0.91888730  0.62842053  0.73746854    -0.34560
N178        N  0.91226242  0.62304122  0.76328662    -0.28810
C179        C  0.89189150  0.64021039  0.77137544    -0.04910
C180        C  0.88551247  0.65733503  0.74960835     0.07300
C181        C  0.90306846  0.64935832  0.72843959     0.01100
H182        H  0.88246897  0.64021687  0.79161108     0.08750
H183        H  0.90386650  0.65768995  0.70783799     0.07830
N184        N  0.95524822  0.56342527  0.80627492    -0.36010
N185        N  0.97575788  0.54921870  0.79494131    -0.28190
C186        C  0.98847898  0.53469537  0.81484751    -0.03430
C187        C  0.97492883  0.53957153  0.83966657     0.05180
C188        C  0.95431229  0.55820572  0.83339204     0.03280
H189        H  0.00729104  0.52295082  0.81186050     0.08380
H190        H  0.94102670  0.56894538  0.84789612     0.07220
N191        N  0.09801630  0.56179688  0.29096495    -0.27170
N192        N  0.11512745  0.57870644  0.30369519    -0.35030
C193        C  0.11260739  0.57540519  0.33090755     0.01170
C194        C  0.09270695  0.55568656  0.33592539     0.07190
C195        C  0.08406329  0.54721129  0.31005795    -0.05900
H196        H  0.12516141  0.58609708  0.34581912     0.07860
H197        H  0.06883235  0.53161891  0.30544966     0.09060
Cu198      Cu  0.14259094  0.60525818  0.28518797     0.44170
Cu199      Cu  0.09559697  0.55909892  0.24826302     0.41990
Cu200      Cu  0.15480314  0.59340831  0.21553769     0.43880
N201        N  0.17141072  0.62766778  0.26357373    -0.34560
N202        N  0.17696184  0.62229778  0.23749153    -0.28810
C203        C  0.19655409  0.63972897  0.22860627    -0.04910
C204        C  0.20344177  0.65701282  0.25022979     0.07300
C205        C  0.18710231  0.64883012  0.27210065     0.01100
H206        H  0.20457272  0.64028082  0.20779380     0.08750
H207        H  0.18665086  0.65752995  0.29264580     0.07830
N208        N  0.12443465  0.57212605  0.19483746    -0.36010
N209        N  0.10217763  0.56098667  0.20591819    -0.28190
C210        C  0.08556649  0.55229104  0.18550404    -0.03430
C211        C  0.09796531  0.55842834  0.16038110     0.05180
C212        C  0.12279439  0.57056368  0.16740543     0.03280
H213        H  0.06561744  0.54291046  0.18877870     0.08380
H214        H  0.13875748  0.57814237  0.15389273     0.07220
O215        O  0.03244314  0.54937206  0.95833211    -0.72820
O216        O  0.06406942  0.55636040  0.03166412    -0.73810
O217        O  0.08460480  0.55220666  0.97953295    -0.62420
O218        O  0.00961845  0.55945091  0.00799629    -0.70840
O219        O  0.01588716  0.52198078  0.03215721    -0.70390
O220        O  0.08484524  0.50753402  0.98739668    -0.61640
O221        O  0.04264443  0.51691716  0.04286430    -0.74150
O222        O  0.01505637  0.50716918  0.96535430    -0.72930
Cu223      Cu  0.04786706  0.55418646  0.99448626     1.04560
Cu224      Cu  0.04434643  0.48378445  0.00470573     1.04330
C225        C  0.01767561  0.52929483  0.95045533     0.93370
C226        C  0.05854208  0.53813563  0.04958825     0.92510
C227        C  0.09694861  0.52943648  0.97941814     0.84660
C228        C  0.99999065  0.54192431  0.02437052     0.90930
N229        N  0.75304948  0.44478676  0.94283930    -0.27170
N230        N  0.74023802  0.42462139  0.92976545    -0.35030
C231        C  0.71315305  0.42655079  0.93484546     0.01170
C232        C  0.70856666  0.44900495  0.95193561     0.07190
C233        C  0.73434893  0.46015015  0.95663010    -0.05900
H234        H  0.69785023  0.41297983  0.92603729     0.07860
H235        H  0.73930236  0.47791551  0.96920539     0.09060
Cu236      Cu  0.75869302  0.39578731  0.90430918     0.44170
Cu237      Cu  0.79514101  0.45027920  0.94160776     0.41990
Cu238      Cu  0.83018761  0.40337779  0.89402801     0.43880
N239        N  0.78049956  0.37199883  0.87645716    -0.34560
N240        N  0.80703116  0.37579021  0.87170648    -0.28810
C241        C  0.81539646  0.35853145  0.85160723    -0.04910
C242        C  0.79299371  0.34297532  0.84359863     0.07300
C243        C  0.77119225  0.35194243  0.85977011     0.01900
H244        H  0.83626761  0.35719606  0.84370554     0.08750
H245        H  0.75006702  0.34488033  0.85908513     0.07830
N246        N  0.84976027  0.42847599  0.92202730    -0.36010
N247        N  0.83735593  0.44606695  0.93896351    -0.28190
C248        C  0.85632142  0.45766817  0.95541544    -0.03430
C249        C  0.88164091  0.44633402  0.94867782     0.05180
C250        C  0.87679569  0.42808738  0.92742027     0.03280
H251        H  0.85180559  0.47210151  0.97191583     0.08380
H252        H  0.89171260  0.41499806  0.91700222     0.07220
N253        N  0.25281303  0.55717615  0.94041799    -0.27170
N254        N  0.24063787  0.57388258  0.92278011    -0.35030
C255        C  0.21334552  0.57021410  0.92388901     0.01170
C256        C  0.20755702  0.54981952  0.94279954     0.07190
C257        C  0.23314438  0.54220223  0.95320389    -0.05900
H258        H  0.19889403  0.58230982  0.91212642     0.07860
H259        H  0.23716951  0.52690384  0.96882993     0.09060
Cu260      Cu  0.25961959  0.60142045  0.89692349     0.44170
Cu261      Cu  0.29563635  0.55628017  0.94575890     0.41990
Cu262      Cu  0.33021080  0.60802028  0.90201199     0.43880
N263        N  0.28107904  0.62831079  0.87238475    -0.34560
N264        N  0.30788958  0.63159385  0.87504337    -0.28810
C265        C  0.31661495  0.65070607  0.85710089    -0.04910
C266        C  0.29405683  0.65955532  0.84226921     0.07300
C267        C  0.27184068  0.64492446  0.85239448     0.01100
H268        H  0.33780616  0.65721835  0.85468893     0.08750
H269        H  0.25057008  0.64641984  0.84596941     0.07830
N270        N  0.35007469  0.58019115  0.92683239    -0.36010
N271        N  0.33841830  0.56164685  0.94306498    -0.28190
C272        C  0.35857582  0.54672560  0.95508304    -0.03430
C273        C  0.38374562  0.55634325  0.94549872     0.05180
C274        C  0.37751603  0.57740390  0.92772436     0.03280
H275        H  0.35516104  0.52948342  0.96874144     0.08380
H276        H  0.39191199  0.58950082  0.91574425     0.07220
O277        O  0.58757485  0.49485411  0.99315293    -0.72820
O278        O  0.51177174  0.52962286  0.98222348    -0.73810
O279        O  0.52183912  0.46201106  0.99055399    -0.62420
O280        O  0.53617886  0.54215085  0.97914700    -0.70840
O281        O  0.56095120  0.53121460  0.94234301    -0.70390
O282        O  0.53360568  0.45682123  0.94700595    -0.61640
O283        O  0.50701257  0.50594335  0.94286522    -0.74150
O284        O  0.58431011  0.48088854  0.94948224    -0.72930
Cu285      Cu  0.53741881  0.50300587  0.01547564     1.04560
Cu286      Cu  0.54636361  0.49370768  0.94562385     1.04330
C287        C  0.59830336  0.48521701  0.97097010     0.93370
C288        C  0.49618115  0.52108447  0.96148424     0.92510
C289        C  0.52213942  0.44770180  0.96829982     0.84660
C290        C  0.55293324  0.54926624  0.95927360     0.90930
N291        N  0.60916061  0.29215502  0.05534990    -0.27170
N292        N  0.62670910  0.30408674  0.07223580    -0.35030
C293        C  0.62531389  0.33148553  0.06929068     0.01170
C294        C  0.60584820  0.33777568  0.04944358     0.07190
C295        C  0.59601602  0.31199355  0.04105805    -0.05900
H296        H  0.63739322  0.34557054  0.08152661     0.07860
H297        H  0.58014875  0.30759707  0.02622541     0.09060
Cu298      Cu  0.65110300  0.28401299  0.10022448     0.44170
Cu299      Cu  0.60353973  0.24942149  0.05451732     0.41990
Cu300      Cu  0.63781432  0.21389352  0.11232500     0.43880
N301        N  0.67237009  0.26178815  0.12910113    -0.34560
N302        N  0.66689112  0.23568545  0.13442296    -0.28810
C303        C  0.68373394  0.22688458  0.15445951    -0.04910
C304        C  0.70067118  0.24860122  0.16182614     0.07300
C305        C  0.69294364  0.27038893  0.14534101     0.01100
H306        H  0.68394848  0.20615771  0.16265817     0.08750
H307        H  0.70145050  0.29100917  0.14525312     0.07830
N308        N  0.61276733  0.19491838  0.08365117    -0.36010
N309        N  0.60167212  0.20700487  0.06195932    -0.28190
C310        C  0.58990891  0.18745772  0.04609970    -0.03430
C311        C  0.59342485  0.16212909  0.05876253     0.05180
C312        C  0.60792538  0.16767494  0.08243551     0.03280
H313        H  0.58006552  0.19130808  0.02656675     0.08380
H314        H  0.61588618  0.15275520  0.09688720     0.07220
N315        N  0.60078859  0.70472477  0.94064858    -0.27170
N316        N  0.61969544  0.69272056  0.92486208    -0.35030
C317        C  0.61599438  0.66529509  0.92532269     0.01170
C318        C  0.59394263  0.65963813  0.94244077     0.07190
C319        C  0.58480389  0.68506999  0.95196864    -0.05900
H320        H  0.62814033  0.65057230  0.91356092     0.07860
H321        H  0.56708003  0.68907878  0.96503595     0.09060
Cu322      Cu  0.64867293  0.71322116  0.90132435     0.44170
Cu323      Cu  0.59593722  0.74725363  0.94363746     0.41990
Cu324      Cu  0.64038605  0.78540286  0.89593503     0.43880
N325        N  0.67235379  0.73678560  0.87498033    -0.34560
N326        N  0.66835887  0.76356767  0.87191348    -0.28810
C327        C  0.68537141  0.77290020  0.85208731    -0.04910
C328        C  0.70100195  0.75087231  0.84251378     0.07300
C329        C  0.69229378  0.72832132  0.85752866     0.01100
H330        H  0.68646804  0.79413893  0.84538375     0.08750
H331        H  0.69941772  0.70721121  0.85547252     0.07830
N332        N  0.61372475  0.80344210  0.92422910    -0.36010
N333        N  0.59714357  0.79002095  0.94122010    -0.28190
C334        C  0.58386774  0.80847650  0.95745025    -0.03430
C335        C  0.59287557  0.83456830  0.95040487     0.05180
C336        C  0.61179182  0.83058577  0.92944235     0.03280
H337        H  0.56997913  0.80319767  0.97410299     0.08380
H338        H  0.62398762  0.84625038  0.91931527     0.07220
N339        N  0.60332757  0.94567591  0.20471369    -0.27170
N340        N  0.61769542  0.92614833  0.19194350    -0.35030
C341        C  0.61576955  0.92980094  0.16469683     0.01170
C342        C  0.59954253  0.95280549  0.15988796     0.07190
C343        C  0.59195542  0.96237752  0.18578355    -0.05900
H344        H  0.62607173  0.91696580  0.14949329     0.07860
H345        H  0.57897384  0.97997601  0.19059665     0.09060
Cu346      Cu  0.64123690  0.89617684  0.21103216     0.44170
Cu347      Cu  0.60034495  0.94890046  0.24722223     0.41990
Cu348      Cu  0.64905780  0.90440372  0.28283765     0.43880
N349        N  0.66812533  0.87224344  0.23371954    -0.34560
N350        N  0.67194971  0.87633431  0.26029515    -0.28810
C351        C  0.69176385  0.85916828  0.26919814    -0.04910
C352        C  0.70062136  0.84333121  0.24712999     0.07300
C353        C  0.68517612  0.85204535  0.22495198     0.01100
H354        H  0.69892343  0.85811162  0.29020785     0.08750
H355        H  0.68664781  0.84472953  0.20392181     0.07830
N356        N  0.62122234  0.93030316  0.30223551    -0.36010
N357        N  0.60306948  0.94622417  0.28971152    -0.28190
C358        C  0.58751064  0.95922410  0.30886939    -0.03430
C359        C  0.59645605  0.95103879  0.33463960     0.05180
C360        C  0.61783505  0.93274467  0.32950361     0.03280
H361        H  0.57113609  0.97365241  0.30425868     0.08380
H362        H  0.62969407  0.92139038  0.34449063     0.07220
O363        O  0.55943443  0.03344031  0.02960486    -0.72820
O364        O  0.55385938  0.95545509  0.99593799    -0.73810
O365        O  0.56193995  0.01011717  0.04233859    -0.62420
O366        O  0.55323363  0.02040906  0.96194855    -0.70840
O367        O  0.59764926  0.01121420  0.95802577    -0.70390
O368        O  0.60060249  0.98692613  0.03378524    -0.61640
O369        O  0.59786866  0.96101641  0.98453519    -0.74150
O370        O  0.59877074  0.04000524  0.00613173    -0.72930
Cu371      Cu  0.52808822  0.00507663  0.00259566     1.04560
Cu372      Cu  0.59854174  0.99998243  0.99556363     1.04330
C373        C  0.57968809  0.04994706  0.02122815     0.93370
C374        C  0.57726885  0.94549431  0.98854654     0.92510
C375        C  0.58177713  0.99370890  0.05046931     0.84660
C376        C  0.57579245  0.02086739  0.94807508     0.90930
N377        N  0.48982606  0.79319008  0.06177380    -0.27170
N378        N  0.47669406  0.80552464  0.08241625    -0.35030
C379        C  0.48037848  0.83290664  0.08078404     0.01170
C380        C  0.49643292  0.83828590  0.05799156     0.07190
C381        C  0.50185050  0.81273500  0.04610972    -0.05900
H382        H  0.47067138  0.84793232  0.09428914     0.07860
H383        H  0.51318640  0.80872382  0.02725699     0.09060
Cu384      Cu  0.45069443  0.78622412  0.10993475     0.44170
Cu385      Cu  0.49046988  0.75027420  0.05641050     0.41990
Cu386      Cu  0.44202693  0.71452902  0.10168546     0.43880
N387        N  0.42082115  0.76449906  0.13092358    -0.34560
N388        N  0.41668901  0.73788697  0.12680104    -0.28810
C389        C  0.39536261  0.72958283  0.14243393    -0.04910
C390        C  0.38588511  0.75212231  0.15729086     0.07300
C391        C  0.40246561  0.77392323  0.14955879     0.01100
H392        H  0.38789662  0.70858747  0.14348819     0.08750
H393        H  0.40123969  0.79505254  0.15680975     0.07830
N394        N  0.47242639  0.69506756  0.07893195    -0.36010
N395        N  0.48950407  0.70740578  0.06160600    -0.28190
C396        C  0.50633014  0.68810875  0.05037047    -0.03430
C397        C  0.49976064  0.66278274  0.06178331     0.05180
C398        C  0.47820189  0.66797168  0.07965136     0.03280
H399        H  0.52245431  0.69225838  0.03548940     0.08380
H400        H  0.46724387  0.65306851  0.09207022     0.07220
N401        N  0.47513523  0.29342277  0.94836877    -0.27170
N402        N  0.45582660  0.30510095  0.93321405    -0.35030
C403        C  0.45640008  0.33250383  0.93714420     0.01170
C404        C  0.47680855  0.33845479  0.95587429     0.07190
C405        C  0.48848545  0.31325767  0.96246373    -0.05900
H406        H  0.44423529  0.34719737  0.92566002     0.07860
H407        H  0.50659789  0.30981365  0.97489268     0.09060
Cu408      Cu  0.43185977  0.28467320  0.90479196     0.44170
Cu409      Cu  0.48399400  0.25150071  0.94665480     0.41990
Cu410      Cu  0.44407938  0.21323920  0.89501801     0.43880
N411        N  0.41182489  0.26178363  0.87520805    -0.34560
N412        N  0.41692557  0.23532580  0.87082497    -0.28810
C413        C  0.40118047  0.22637561  0.84991651    -0.04910
C414        C  0.38528564  0.24832741  0.84100607     0.07300
C415        C  0.39252735  0.27041979  0.85749371     0.01100
H416        H  0.40089951  0.20537678  0.84222578     0.08750
H417        H  0.38448795  0.29126359  0.85664007     0.07830
N418        N  0.46994133  0.19535145  0.92367313    -0.36010
N419        N  0.48497237  0.20891196  0.94189638    -0.28190
C420        C  0.49813042  0.19054928  0.95794795    -0.03430
C421        C  0.49066474  0.16435637  0.94953061     0.05180
C422        C  0.47282119  0.16814652  0.92787397     0.03280
H423        H  0.51087095  0.19589119  0.97536273     0.08380
H424        H  0.46201165  0.15228536  0.91653558     0.07220
N425        N  0.48795401  0.93887296  0.79041048    -0.27170
N426        N  0.47328847  0.91901660  0.80181401    -0.35030
C427        C  0.47780865  0.91859348  0.82890265     0.01170
C428        C  0.49620699  0.93934061  0.83567541     0.07190
C429        C  0.50220759  0.95183572  0.81045892    -0.05900
H430        H  0.46774574  0.90418496  0.84251145     0.07860
H431        H  0.51526699  0.96945391  0.80677095     0.09060
Cu432      Cu  0.44564819  0.89369704  0.78226914     0.44170
Cu433      Cu  0.48669143  0.94684777  0.74797699     0.41990
Cu434      Cu  0.43203355  0.90681508  0.71358722     0.43880
N435        N  0.41634569  0.87192253  0.76104298    -0.34560
N436        N  0.41054055  0.87750357  0.73520036    -0.28810
C437        C  0.39052189  0.86053277  0.72654877    -0.04910
C438        C  0.38362288  0.84336330  0.74811690     0.07300
C439        C  0.40036709  0.85108127  0.76969258     0.01100
H440        H  0.38207569  0.86036732  0.70599684     0.08750
H441        H  0.40084768  0.84235513  0.79013391     0.07830
N442        N  0.45926902  0.93248971  0.69380825    -0.36010
N443        N  0.47933262  0.94682996  0.70540076    -0.28190
C444        C  0.49435276  0.95876452  0.68523335    -0.03430
C445        C  0.48290342  0.95154939  0.66012809     0.05180
C446        C  0.46097148  0.93479491  0.66639365     0.03280
H447        H  0.51298416  0.97052309  0.68849625     0.08380
H448        H  0.44802985  0.92380898  0.65199312     0.07220
O449        O  0.48483161  0.01302155  0.03047347    -0.72820
O450        O  0.49306329  0.98713884  0.95460676    -0.73810
O451        O  0.48842602  0.95978831  0.00308498    -0.62420
O452        O  0.49100636  0.03800752  0.98078580    -0.70840
O453        O  0.53415291  0.04426437  0.99459816    -0.70390
O454        O  0.52590455  0.96701716  0.02871066    -0.61640
O455        O  0.53717079  0.97789146  0.96139849    -0.74150
O456        O  0.52276187  0.99026560  0.04163033    -0.72930
Cu457      Cu  0.48959050  0.99939093  0.99215987     1.04560
Cu458      Cu  0.55919155  0.99485615  0.00292903     1.04330
C459        C  0.50180351  0.00607369  0.04879372     0.93370
C460        C  0.51554062  0.97682589  0.94647431     0.92510
C461        C  0.50645836  0.95017994  0.01923254     0.84660
C462        C  0.51118847  0.05379095  0.98566385     0.90930
N463        N  0.75084170  0.94832428  0.56258238    -0.27170
N464        N  0.73805114  0.93372107  0.58171376    -0.35030
C465        C  0.71074732  0.93766513  0.57952683     0.01170
C466        C  0.70610954  0.95556047  0.55808192     0.07190
C467        C  0.73186203  0.96171847  0.54750367    -0.05900
H468        H  0.69533403  0.92700530  0.59161467     0.07860
H469        H  0.73640518  0.97414506  0.52961108     0.09060
Cu470      Cu  0.75700112  0.90598115  0.60781524     0.44170
Cu471      Cu  0.79331097  0.94807667  0.55684748     0.41990
Cu472      Cu  0.82723387  0.89176965  0.59298772     0.43880
N473        N  0.77905450  0.87581579  0.62822776    -0.34560
N474        N  0.80490934  0.86973070  0.62194918    -0.28810
C475        C  0.81352713  0.84900895  0.63815064    -0.04910
C476        C  0.79203773  0.84188756  0.65556201     0.07300
C477        C  0.77050765  0.85931228  0.64873044     0.01100
H478        H  0.83406873  0.84022471  0.63768490     0.08750
H479        H  0.75010679  0.85988399  0.65785391     0.07830
N480        N  0.84753951  0.92088680  0.56927188    -0.36010
N481        N  0.83572175  0.94204459  0.55693024    -0.28190
C482        C  0.85550578  0.95867763  0.54673997    -0.03430
C483        C  0.88112966  0.94740454  0.55297381     0.05180
C484        C  0.87496399  0.92329737  0.56705838     0.03280
H485        H  0.85131854  0.97818615  0.53689685     0.08380
H486        H  0.88926615  0.90884343  0.57610686     0.07220
N487        N  0.98521197  0.29242939  0.55552879    -0.27170
N488        N  0.96877303  0.30534612  0.57327725    -0.35030
C489        C  0.97021468  0.33261335  0.56928638     0.01170
C490        C  0.98878772  0.33791200  0.54830612     0.07190
C491        C  0.99772675  0.31178088  0.53977507    -0.05900
H492        H  0.95764882  0.34735328  0.58049260     0.07860
H493        H  0.01221161  0.30721239  0.52334341     0.09060
Cu494      Cu  0.94314594  0.28796220  0.60249368     0.44170
Cu495      Cu  0.98868260  0.24882066  0.55388302     0.41990
Cu496      Cu  0.93710485  0.21770472  0.59929209     0.43880
N497        N  0.91531607  0.26742355  0.62722836    -0.34560
N498        N  0.91222749  0.24053932  0.62461441    -0.28810
C499        C  0.89242260  0.23187533  0.64182504    -0.04910
C500        C  0.88274218  0.25452232  0.65625333     0.07300
C501        C  0.89770579  0.27682040  0.64663947     0.01100
H502        H  0.88611371  0.21060239  0.64413857     0.08750
H503        H  0.89575459  0.29817856  0.65301092     0.07830
N504        N  0.96618826  0.19575992  0.57794724    -0.36010
N505        N  0.98481932  0.20583672  0.56076030    -0.28190
C506        C  0.99956338  0.18433515  0.55043017    -0.03430
C507        C  0.98986442  0.16007103  0.56236117     0.05180
C508        C  0.96874202  0.16830082  0.57949918     0.03280
H509        H  0.01618781  0.18616864  0.53561161     0.08380
H510        H  0.95554668  0.15521618  0.59179614     0.07220
N511        N  0.10166298  0.70690308  0.55883276    -0.27170
N512        N  0.11382588  0.69570071  0.58029019    -0.35030
C513        C  0.10972126  0.66840798  0.57995068     0.01170
C514        C  0.09416539  0.66152129  0.55706100     0.07190
C515        C  0.08941255  0.68677641  0.54418507    -0.05900
H516        H  0.11838530  0.65474065  0.59512866     0.07860
H517        H  0.07858871  0.69064492  0.52526971     0.09060
Cu518      Cu  0.13815963  0.71616133  0.60818527     0.44170
Cu519      Cu  0.10367944  0.74884772  0.54999549     0.41990
Cu520      Cu  0.15459326  0.78479621  0.59217687     0.43880
N521        N  0.16674605  0.73821449  0.63017682    -0.34560
N522        N  0.17372626  0.76363601  0.62352899    -0.28810
C523        C  0.19388326  0.77221227  0.64033185    -0.04910
C524        C  0.19967976  0.75107928  0.65845362     0.07300
C525        C  0.18208747  0.72983681  0.65150215     0.01100
H526        H  0.20353640  0.79229282  0.63940501     0.08750
H527        H  0.18096419  0.70959162  0.66074358     0.07830
N528        N  0.12914590  0.80375037  0.56401809    -0.36010
N529        N  0.11038912  0.79123423  0.54878576    -0.28190
C530        C  0.09530836  0.81056040  0.53574460    -0.03430
C531        C  0.10509094  0.83628720  0.54334330     0.05180
C532        C  0.12648299  0.83112845  0.56119086     0.03280
H533        H  0.07724669  0.80628400  0.52350476     0.08380
H534        H  0.13800711  0.84623139  0.57284423     0.07220
O535        O  0.05593070  0.95838631  0.50981861    -0.72820
O536        O  0.01273016  0.03059133  0.52131970    -0.73810
O537        O  0.07836046  0.02846865  0.50814485    -0.62420
O538        O  0.00030771  0.00344660  0.51696551    -0.70840
O539        O  0.01013157  0.98370528  0.55741223    -0.70390
O540        O  0.08555743  0.01064172  0.54993850    -0.61640
O541        O  0.03695286  0.03608822  0.55896853    -0.74150
O542        O  0.06090326  0.96008254  0.55457647    -0.72930
Cu543      Cu  0.03914865  0.99836588  0.48490411     1.04560
Cu544      Cu  0.04832451  0.99745924  0.55506849     1.04330
C545        C  0.06235438  0.94681083  0.53240907     0.93370
C546        C  0.02061911  0.04598930  0.54168328     0.92510
C547        C  0.09365259  0.02517662  0.52979724     0.84660
C548        C  0.99273298  0.98872451  0.53860577     0.90930
N549        N  0.59429064  0.06562675  0.79301390    -0.27170
N550        N  0.60892432  0.08519801  0.80506407    -0.35030
C551        C  0.60476639  0.08417838  0.83233716     0.01170
C552        C  0.58644642  0.06319718  0.83785698     0.07190
C553        C  0.58037211  0.05161264  0.81252409    -0.05900
H554        H  0.61591493  0.09641643  0.84723855     0.07860
H555        H  0.56840989  0.03317415  0.80876691     0.09060
Cu556      Cu  0.63744434  0.10988340  0.78548462     0.44170
Cu557      Cu  0.59678303  0.05710467  0.75104444     0.41990
Cu558      Cu  0.65260542  0.09398624  0.71586613     0.43880
N559        N  0.66797014  0.12978166  0.76361756    -0.34560
N560        N  0.67437029  0.12327060  0.73794637    -0.28810
C561        C  0.69519559  0.13945906  0.72942849    -0.04910
C562        C  0.70199342  0.15707763  0.75082066     0.07300
C563        C  0.68433430  0.15039319  0.77216365     0.01100
H564        H  0.70423160  0.13886843  0.70902422     0.08750
H565        H  0.68342375  0.15975415  0.79240912     0.07830
N566        N  0.62442119  0.06852371  0.69648266    -0.36010
N567        N  0.60411770  0.05513448  0.70883064    -0.28190
C568        C  0.58825935  0.04312747  0.68950231    -0.03430
C569        C  0.59894223  0.04965151  0.66387171     0.05180
C570        C  0.62192714  0.06556775  0.66915714     0.03280
H571        H  0.56933413  0.03212658  0.69372131     0.08380
H572        H  0.63519149  0.07543011  0.65420254     0.07220
N573        N  0.47855958  0.05047746  0.29310652    -0.27170
N574        N  0.46117041  0.06827761  0.30463219    -0.35030
C575        C  0.46412898  0.06793519  0.33201567     0.01170
C576        C  0.48405344  0.04881362  0.33841921     0.07190
C577        C  0.49298613  0.03806143  0.31333663    -0.05900
H578        H  0.45317340  0.08138829  0.34620732     0.07860
H579        H  0.50951632  0.02333638  0.31001136     0.09060
Cu580      Cu  0.43542405  0.09477560  0.28413252     0.44170
Cu581      Cu  0.48278353  0.04652371  0.25011791     0.41990
Cu582      Cu  0.44764827  0.10387852  0.21416929     0.43880
N583        N  0.41430898  0.12380076  0.26189033    -0.34560
N584        N  0.41968274  0.12831051  0.23566817    -0.28810
C585        C  0.40323142  0.14878184  0.22672316    -0.04910
C586        C  0.38663435  0.15725311  0.24849695     0.07300
C587        C  0.39419143  0.14096651  0.27045164     0.01100
H588        H  0.40289484  0.15640233  0.20584007     0.08750
H589        H  0.38583719  0.14160108  0.29113952     0.07830
N590        N  0.46965438  0.07238643  0.19498199    -0.36010
N591        N  0.48153359  0.05105130  0.20706671    -0.28190
C592        C  0.49090659  0.03357267  0.18728448    -0.03430
C593        C  0.48450653  0.04445783  0.16155013     0.05180
C594        C  0.47126715  0.06918482  0.16763055     0.03280
H595        H  0.50062193  0.01394477  0.19150424     0.08380
H596        H  0.46265356  0.08379151  0.15327363     0.07220
N597        N  0.33605071  0.05780826  0.55296079    -0.27170
N598        N  0.34806248  0.07138953  0.57325036    -0.35030
C599        C  0.37550205  0.06906089  0.57064201     0.01170
C600        C  0.38163801  0.05321083  0.54756396     0.07190
C601        C  0.35589217  0.04632284  0.53691306    -0.05900
H602        H  0.38990915  0.07938917  0.58406613     0.07860
H603        H  0.35168449  0.03426583  0.51866402     0.09060
Cu604      Cu  0.32818344  0.09538733  0.60262058     0.44170
Cu605      Cu  0.29316392  0.05808538  0.54704719     0.41990
Cu606      Cu  0.25824241  0.10986201  0.59019624     0.43880
N607        N  0.30594793  0.12316252  0.62642332    -0.34560
N608        N  0.27999225  0.12928510  0.62109356    -0.28810
C609        C  0.27137333  0.14920318  0.63851145    -0.04910
C610        C  0.29299418  0.15577919  0.65573106     0.07300
C611        C  0.31459619  0.13883685  0.64757595     0.01100
H612        H  0.25094033  0.15824406  0.63855177     0.08750
H613        H  0.33526198  0.13848003  0.65582759     0.07830
N614        N  0.23878241  0.08612406  0.56074308    -0.36010
N615        N  0.25067637  0.06662092  0.54558045    -0.28190
C616        C  0.23087807  0.05339773  0.53124704    -0.03430
C617        C  0.20560799  0.06565725  0.53731715     0.05180
C618        C  0.21149822  0.08596828  0.55634172     0.03280
H619        H  0.23434762  0.03517458  0.51871208     0.08380
H620        H  0.19672065  0.09832210  0.56781307     0.07220
O621        O  0.54829932  0.00858427  0.54442378    -0.72820
O622        O  0.51419463  0.01788185  0.46631971    -0.73810
O623        O  0.58172349  0.00826751  0.47924465    -0.62420
O624        O  0.50165719  0.02015802  0.48960720    -0.70840
O625        O  0.51110438  0.05760042  0.51394898    -0.70390
O626        O  0.58762551  0.05262557  0.48774768    -0.61640
O627        O  0.53864179  0.05646007  0.46030398    -0.74150
O628        O  0.56133249  0.05202644  0.53796968    -0.72930
Cu629      Cu  0.54011403  0.98453155  0.49381192     1.04560
Cu630      Cu  0.54964331  0.05442103  0.49977430     1.04330
C631        C  0.55745676  0.03168806  0.55381928     0.93370
C632        C  0.52299155  0.03821903  0.45011121     0.92510
C633        C  0.59658960  0.02994914  0.47869962     0.84660
C634        C  0.49379234  0.03959911  0.50680085     0.90930
N635        N  0.25340625  0.93765358  0.44981870    -0.27170
N636        N  0.24047002  0.92087912  0.43272020    -0.35030
C637        C  0.21321988  0.92469450  0.43538553     0.01170
C638        C  0.20869348  0.94459409  0.45529229     0.07190
C639        C  0.23455212  0.95254344  0.46405663    -0.05900
H640        H  0.19784175  0.91457049  0.42288447     0.07860
H641        H  0.23933811  0.96888927  0.47849149     0.09060
Cu642      Cu  0.25957873  0.89516630  0.40452647     0.44170
Cu643      Cu  0.29597791  0.94079773  0.45054239     0.41990
Cu644      Cu  0.33202193  0.90274313  0.39527572     0.43880
N645        N  0.28168524  0.87300714  0.37554193    -0.34560
N646        N  0.30833654  0.87659002  0.37116027    -0.28810
C647        C  0.31655652  0.85974247  0.35057159    -0.04910
C648        C  0.29396844  0.84468867  0.34193223     0.07300
C649        C  0.27223173  0.85357518  0.35821226     0.01100
H650        H  0.33751386  0.85807841  0.34296717     0.08750
H651        H  0.25107577  0.84661522  0.35742671     0.07830
N652        N  0.35137928  0.92583586  0.42562674    -0.36010
N653        N  0.33845138  0.93912729  0.44582389    -0.28190
C654        C  0.35726014  0.95014411  0.46285887    -0.03430
C655        C  0.38311295  0.94352407  0.45279838     0.05180
C656        C  0.37873279  0.92816490  0.42925132     0.03280
H657        H  0.35244846  0.96167623  0.48140902     0.08380
H658        H  0.39425871  0.91868560  0.41616869     0.07220
N659        N  0.97415123  0.79432270  0.44845272    -0.27170
N660        N  0.95507170  0.80541221  0.43260732    -0.35030
C661        C  0.95479119  0.83284938  0.43605865     0.01170
C662        C  0.97473407  0.84005402  0.45495397     0.07190
C663        C  0.98666173  0.81494180  0.46249951    -0.05900
H664        H  0.94130242  0.84660420  0.42492040     0.07860
H665        H  0.00390756  0.81196160  0.47618135     0.09060
Cu666      Cu  0.93135174  0.78461947  0.40436153     0.44170
Cu667      Cu  0.98213696  0.75146798  0.44794576     0.41990
Cu668      Cu  0.94644974  0.71517307  0.39083452     0.43880
N669        N  0.91161058  0.76283365  0.37387806    -0.34560
N670        N  0.91776336  0.73688734  0.36808477    -0.28810
C671        C  0.90197501  0.72829869  0.34706349    -0.04910
C672        C  0.88500350  0.74999154  0.33950392     0.07300
C673        C  0.89165181  0.77154820  0.35693414     0.01100
H674        H  0.90244574  0.70770455  0.33834190     0.08750
H675        H  0.88274976  0.79206408  0.35726004     0.07830
N676        N  0.97226016  0.69635469  0.41895451    -0.36010
N677        N  0.98429285  0.70859124  0.44014373    -0.28190
C678        C  0.99710888  0.68900735  0.45515236    -0.03430
C679        C  0.99334980  0.66350933  0.44245586     0.05180
C680        C  0.97741375  0.66909924  0.41970832     0.03280
H681        H  0.00804318  0.69293953  0.47410156     0.08380
H682        H  0.96888723  0.65423709  0.40544839     0.07220
N683        N  0.75341155  0.04958898  0.43695908    -0.27170
N684        N  0.74082867  0.06500946  0.41840852    -0.35030
C685        C  0.71349206  0.06146488  0.42046761     0.01170
C686        C  0.70818053  0.04313270  0.44144449     0.07190
C687        C  0.73398982  0.03603701  0.45161068    -0.05900
H688        H  0.69846358  0.07236071  0.40819814     0.07860
H689        H  0.73834340  0.02210657  0.46837269     0.09060
Cu690      Cu  0.75946523  0.09269226  0.39216491     0.44170
Cu691      Cu  0.79654954  0.04819145  0.44128578     0.41990
Cu692      Cu  0.82946279  0.10382293  0.40268408     0.43880
N693        N  0.78076597  0.12290510  0.37132696    -0.34560
N694        N  0.80701193  0.12782490  0.37619555    -0.28810
C695        C  0.81552306  0.14886129  0.36040910    -0.04910
C696        C  0.79346546  0.15738554  0.34470052     0.07300
C697        C  0.77173942  0.14050188  0.35206986     0.01100
H698        H  0.83633528  0.15682296  0.35991949     0.08750
H699        H  0.75094565  0.14100852  0.34414820     0.07830
N700        N  0.85043975  0.07496745  0.42534629    -0.36010
N701        N  0.83947421  0.05409001  0.43896787    -0.28190
C702        C  0.86022313  0.03905883  0.44992738    -0.03430
C703        C  0.88516867  0.05143842  0.44289533     0.05180
C704        C  0.87792740  0.07401580  0.42734449     0.03280
H705        H  0.85736595  0.02076884  0.46229735     0.08380
H706        H  0.89171278  0.08853375  0.41755243     0.07220
N707        N  0.10277248  0.29102026  0.44627632    -0.27170
N708        N  0.11816761  0.30350065  0.42755182    -0.35030
C709        C  0.11605195  0.33086365  0.43085243     0.01170
C710        C  0.09811002  0.33646051  0.45239784     0.07190
C711        C  0.09027165  0.31059421  0.46198256    -0.05900
H712        H  0.12752600  0.34554613  0.41867584     0.07860
H713        H  0.07643950  0.30633667  0.47897550     0.09060
Cu714      Cu  0.14283189  0.28498533  0.39787774     0.44170
Cu715      Cu  0.10044548  0.24783604  0.44918942     0.41990
Cu716      Cu  0.15043199  0.21416753  0.40242972     0.43880
N717        N  0.16994754  0.26374417  0.37250097    -0.34560
N718        N  0.17371049  0.23693697  0.37529279    -0.28810
C719        C  0.19342387  0.22838689  0.35765415    -0.04910
C720        C  0.20228290  0.25098660  0.34281544     0.07300
C721        C  0.18691669  0.27310907  0.35265272     0.01100
H722        H  0.20050283  0.20726399  0.35557637     0.08750
H723        H  0.18838103  0.29444309  0.34632629     0.07830
N724        N  0.12270160  0.19353900  0.42704734    -0.36010
N725        N  0.10462396  0.20490629  0.44423160    -0.28190
C726        C  0.08958269  0.18452720  0.45577270    -0.03430
C727        C  0.09858771  0.15939907  0.44497593     0.05180
C728        C  0.11951544  0.16607733  0.42691134     0.03280
H729        H  0.07269683  0.18782410  0.47007746     0.08380
H730        H  0.13144659  0.15198059  0.41420338     0.07220
O731        O  0.08348594  0.97683887  0.44727067    -0.72820
O732        O  0.00898493  0.00455909  0.44201734    -0.73810
O733        O  0.06347590  0.02930084  0.44268126    -0.62420
O734        O  0.03101091  0.95523281  0.45276395    -0.70840
O735        O  0.01464875  0.96593315  0.49493040    -0.70390
O736        O  0.04322034  0.04197788  0.48241948    -0.61640
O737        O  0.01580382  0.03140351  0.47780299    -0.74150
O738        O  0.08491556  0.98769712  0.49107867    -0.72930
Cu739      Cu  0.04696459  0.99150389  0.44627006     1.04560
Cu740      Cu  0.04489027  0.00514752  0.51619185     1.04330
C741        C  0.09675579  0.97910116  0.46918058     0.93370
C742        C  0.99967661  0.02191106  0.45890274     0.92510
C743        C  0.05912311  0.04774904  0.46102080     0.84660
C744        C  0.01558751  0.95003496  0.47338069     0.90930
N745        N  0.78210854  0.20464435  0.28822332    -0.27170
N746        N  0.80466867  0.21537503  0.29894820    -0.35030
C747        C  0.81227930  0.20018315  0.32070965     0.01170
C748        C  0.79334971  0.17917075  0.32392085     0.07190
C749        C  0.77447667  0.18262577  0.30307936    -0.05900
H750        H  0.83010937  0.20428900  0.33333822     0.07860
H751        H  0.75680709  0.16980629  0.29866810     0.09060
Cu752      Cu  0.82363308  0.25039599  0.28384670     0.44170
Cu753      Cu  0.76325284  0.21943680  0.25333115     0.41990
Cu754      Cu  0.79282180  0.28030028  0.22295635     0.43880
N755        N  0.83852545  0.28524695  0.26444310    -0.34560
N756        N  0.82769184  0.29571902  0.24186129    -0.28810
C757        C  0.84283241  0.31744635  0.23381907    -0.04910
C758        C  0.86400589  0.32091807  0.25239148     0.07300
C759        C  0.86064354  0.30025098  0.27159170     0.01100
H760        H  0.83863949  0.32982124  0.21584143     0.08750
H761        H  0.87358394  0.29606218  0.28914825     0.07830
N762        N  0.75827774  0.26063802  0.20770388    -0.36010
N763        N  0.74794848  0.23785225  0.21841952    -0.28190
C764        C  0.72610699  0.22982134  0.20354755    -0.03430
C765        C  0.72236776  0.24867625  0.18268240     0.05180
C766        C  0.74304339  0.26797589  0.18591040     0.03280
H767        H  0.71360910  0.21190105  0.20795351     0.08380
H768        H  0.74686499  0.28591918  0.17329516     0.07220
N769        N  0.78110554  0.71500288  0.20229077    -0.27170
N770        N  0.80359974  0.70397160  0.21290906    -0.35030
C771        C  0.81078231  0.68160551  0.19801562     0.01170
C772        C  0.79169354  0.67833636  0.17726806     0.07190
C773        C  0.77313176  0.69978038  0.18058728    -0.05900
H774        H  0.82847261  0.66862767  0.20212899     0.07860
H775        H  0.75541459  0.70429634  0.16793930     0.09060
Cu776      Cu  0.82317172  0.71941023  0.24739330     0.44170
Cu777      Cu  0.76272776  0.75059737  0.21709319     0.41990
Cu778      Cu  0.79301941  0.78109144  0.27769831     0.43880
N779        N  0.83858639  0.73879723  0.28204189    -0.34560
N780        N  0.82798792  0.76169791  0.29268270    -0.28810
C781        C  0.84304293  0.76931571  0.31455440    -0.04910
C782        C  0.86389066  0.75011315  0.31797533     0.07300
C783        C  0.86044651  0.73101840  0.29707159     0.01100
H784        H  0.83883098  0.78727014  0.32725266     0.08750
H785        H  0.87298129  0.71292723  0.29293412     0.07830
N786        N  0.75808814  0.79650742  0.25868368    -0.36010
N787        N  0.74764802  0.78582415  0.23595454    -0.28190
C788        C  0.72579119  0.80096760  0.22821664    -0.03430
C789        C  0.72210203  0.82195566  0.24721211     0.05180
C790        C  0.74283283  0.81851912  0.26630769     0.03280
H791        H  0.71327612  0.79670168  0.21035127     0.08380
H792        H  0.74678282  0.83125806  0.28419390     0.07220
N793        N  0.28100012  0.78764049  0.29480471    -0.27170
N794        N  0.30375325  0.79800867  0.28393115    -0.35030
C795        C  0.31194443  0.81971139  0.29910926     0.01170
C796        C  0.29324171  0.82341892  0.32033358     0.07190
C797        C  0.27382186  0.80283333  0.31698392    -0.05900
H798        H  0.32998567  0.83206167  0.29476759     0.07860
H799        H  0.25608306  0.79886977  0.32996376     0.09060
Cu800      Cu  0.32237797  0.78292000  0.24861686     0.44170
Cu801      Cu  0.26161873  0.75257933  0.27964679     0.41990
Cu802      Cu  0.29268070  0.72209516  0.21833469     0.43880
N803        N  0.33771719  0.76413966  0.21349821    -0.34560
N804        N  0.32737908  0.74127956  0.20285944    -0.28810
C805        C  0.34286393  0.73346227  0.18113555    -0.04910
C806        C  0.36367663  0.75258067  0.17783577     0.07300
C807        C  0.35978516  0.77179370  0.19859130     0.01100
H808        H  0.33917035  0.71528969  0.16867466     0.08750
H809        H  0.37244137  0.78960610  0.20300536     0.07830
N810        N  0.25828762  0.70637327  0.23791324    -0.36010
N811        N  0.24733634  0.71690705  0.26065727    -0.28190
C812        C  0.22613967  0.70092466  0.26864820    -0.03430
C813        C  0.22355607  0.67957668  0.24983417     0.05180
C814        C  0.24416429  0.68371276  0.23059749     0.03280
H815        H  0.21348625  0.70467971  0.28670250     0.08380
H816        H  0.24892785  0.67092402  0.21286828     0.07220
N817        N  0.28156874  0.70510743  0.78459444    -0.27170
N818        N  0.30494874  0.71531150  0.79402788    -0.35030
C819        C  0.31314621  0.70043463  0.81574736     0.01170
C820        C  0.29378314  0.68017434  0.82039170     0.07190
C821        C  0.27399632  0.68369922  0.80038317    -0.05900
H822        H  0.33152306  0.70448122  0.82759375     0.07860
H823        H  0.25562012  0.67148811  0.79733044     0.09060
Cu824      Cu  0.32410914  0.74971504  0.77822627     0.44170
Cu825      Cu  0.26137879  0.72021380  0.75040838     0.41990
Cu826      Cu  0.29272307  0.77983206  0.71867337     0.43880
N827        N  0.33875359  0.78472822  0.75927459    -0.34560
N828        N  0.32767144  0.79530678  0.73689662    -0.28810
C829        C  0.34211716  0.81762374  0.72928688    -0.04910
C830        C  0.36305477  0.82136876  0.74802461     0.07300
C831        C  0.36034974  0.80024073  0.76680462     0.01100
H832        H  0.33736535  0.83042443  0.71175019     0.08750
H833        H  0.37316996  0.79629428  0.78450495     0.07830
N834        N  0.25724115  0.76146942  0.70456967    -0.36010
N835        N  0.24601514  0.73930897  0.71569561    -0.28190
C836        C  0.22373401  0.73213002  0.70101624    -0.03430
C837        C  0.22077406  0.75089772  0.67988997     0.05180
C838        C  0.24227963  0.76923137  0.68277234     0.03280
H839        H  0.21064611  0.71465477  0.70549120     0.08380
H840        H  0.24702878  0.78665863  0.66975689     0.07220
N841        N  0.32920142  0.26005675  0.79323890    -0.27170
N842        N  0.33960317  0.23689718  0.78297490    -0.35030
C843        C  0.36110965  0.22897528  0.79845314     0.01170
C844        C  0.36450356  0.24828932  0.81918607     0.07190
C845        C  0.34401340  0.26772220  0.81523247    -0.05900
H846        H  0.37348893  0.21069783  0.79469621     0.07860
H847        H  0.33985967  0.28588015  0.82765907     0.09060
Cu848      Cu  0.32442287  0.21756224  0.74810318     0.44170
Cu849      Cu  0.29478604  0.27983644  0.77783146     0.41990
Cu850      Cu  0.26389886  0.24906119  0.71785719     0.43880
N851        N  0.30500815  0.20241694  0.71331037    -0.34560
N852        N  0.28248233  0.21350157  0.70278632    -0.28810
C853        C  0.27459834  0.19843940  0.68092529    -0.04910
C854        C  0.29323384  0.17705216  0.67736377     0.07300
C855        C  0.31229168  0.18020878  0.69816923     0.01100
H856        H  0.25686638  0.20301942  0.66832025     0.08750
H857        H  0.32999843  0.16722058  0.70218093     0.07830
N858        N  0.24909231  0.28460764  0.73664865    -0.36010
N859        N  0.25999307  0.29550768  0.75905050    -0.28190
C860        C  0.24516642  0.31782081  0.76662764    -0.03430
C861        C  0.22413530  0.32122262  0.74788770     0.05180
C862        C  0.22724922  0.29989092  0.72912172     0.03280
H863        H  0.24957935  0.33073140  0.78427814     0.08380
H864        H  0.21441806  0.29555929  0.71149962     0.07220
N865        N  0.78068543  0.28605728  0.79641645    -0.27170
N866        N  0.80317497  0.29688893  0.78547108    -0.35030
C867        C  0.81110446  0.31858198  0.80073417     0.01170
C868        C  0.79248280  0.32176454  0.82207797     0.07190
C869        C  0.77339153  0.30092157  0.81875425    -0.05900
H870        H  0.82884996  0.33132627  0.79631117     0.07860
H871        H  0.75577585  0.29660746  0.83178598     0.09060
Cu872      Cu  0.82167325  0.28271533  0.74987713     0.44170
Cu873      Cu  0.76171208  0.25103267  0.78107021     0.41990
Cu874      Cu  0.79291127  0.22098546  0.72003088     0.43880
N875        N  0.83647976  0.26471658  0.71429282    -0.34560
N876        N  0.82658946  0.24152701  0.70392839    -0.28810
C877        C  0.84151191  0.23443567  0.68162278    -0.04910
C878        C  0.86142152  0.25436430  0.67764351     0.07300
C879        C  0.85765778  0.27331690  0.69861795     0.01100
H880        H  0.83798953  0.21622742  0.66916145     0.08750
H881        H  0.86979788  0.29157995  0.70263965     0.07830
N882        N  0.75847449  0.20492253  0.73937084    -0.36010
N883        N  0.74741751  0.21557248  0.76199832    -0.28190
C884        C  0.72580098  0.20005335  0.76966386    -0.03430
C885        C  0.72300270  0.17882346  0.75077930     0.05180
C886        C  0.74398436  0.18254671  0.73181446     0.03280
H887        H  0.71289652  0.20416222  0.78746564     0.08380
H888        H  0.74855279  0.16984906  0.71397231     0.07220
N889        N  0.82764549  0.70444137  0.75971192    -0.27170
N890        N  0.83859750  0.71483673  0.73705854    -0.35030
C891        C  0.86078940  0.69961670  0.72980429     0.01170
C892        C  0.86405676  0.67888249  0.74901934     0.07190
C893        C  0.84273759  0.68260068  0.76769576    -0.05900
H894        H  0.87374276  0.70357048  0.71206443     0.07860
H895        H  0.83830903  0.67019153  0.78562516     0.09060
Cu896      Cu  0.82312615  0.74973377  0.71774894     0.44170
Cu897      Cu  0.79242829  0.72001737  0.77854296     0.41990
Cu898      Cu  0.76215690  0.78132027  0.74907862     0.43880
N899        N  0.80368464  0.78475413  0.70261568    -0.34560
N900        N  0.78113856  0.79578525  0.71358095    -0.28810
C901        C  0.77342088  0.81762114  0.69841484    -0.04910
C902        C  0.79216810  0.82064189  0.67709535     0.07300
C903        C  0.81110912  0.79952805  0.68041413     0.01100
H904        H  0.75567282  0.83053726  0.70282338     0.08750
H905        H  0.82882552  0.79502572  0.66749679     0.07830
N906        N  0.74714947  0.76246202  0.78436104    -0.36010
N907        N  0.75772361  0.73948005  0.79448525    -0.28190
C908        C  0.74286110  0.73181913  0.81657888    -0.03430
C909        C  0.72218553  0.75110738  0.82078103     0.05180
C910        C  0.72551818  0.77031219  0.80006648     0.03280
H911        H  0.74704787  0.71373144  0.82886523     0.08380
H912        H  0.71289210  0.78836458  0.79637515     0.07220
N913        N  0.28315280  0.29600462  0.21477185    -0.27170
N914        N  0.30544596  0.28481520  0.20349252    -0.35030
C915        C  0.31265652  0.29944213  0.18114051     0.01170
C916        C  0.29378468  0.32062596  0.17808428     0.07190
C917        C  0.27534370  0.31781687  0.19968136    -0.05900
H918        H  0.33011840  0.29475831  0.16794148     0.07860
H919        H  0.25771645  0.33082575  0.20430197     0.09060
Cu920      Cu  0.32451441  0.24973703  0.21839643     0.44170
Cu921      Cu  0.26453717  0.28164240  0.25040286     0.41990
Cu922      Cu  0.29428340  0.21998227  0.27964032     0.43880
N923        N  0.33967544  0.21471795  0.23727307    -0.34560
N924        N  0.32910709  0.20430047  0.26009629    -0.28810
C925        C  0.34425899  0.18234230  0.26763172    -0.04910
C926        C  0.36511972  0.17863718  0.24843244     0.07300
C927        C  0.36158035  0.19943640  0.22942830     0.01100
H928        H  0.34020172  0.16987182  0.28560560     0.08750
H929        H  0.37422115  0.20347474  0.21148509     0.07830
N930        N  0.25961096  0.23962381  0.29552543    -0.36010
N931        N  0.24927939  0.26273836  0.28545400    -0.28190
C932        C  0.22749066  0.27060266  0.30091458    -0.03430
C933        C  0.22377284  0.25126324  0.32141162     0.05180
C934        C  0.24440472  0.23188478  0.31735751     0.03280
H935        H  0.21498464  0.28872370  0.29715340     0.08380
H936        H  0.24828943  0.21365598  0.32953558     0.07220
C937        C  0.08757927  0.13129038  0.44948014    -0.05350
C938        C  0.08618153  0.11296472  0.42705642    -0.32780
C939        C  0.07702247  0.08584111  0.43042895     0.36470
C940        C  0.06899572  0.07641402  0.45668956    -0.05700
C941        C  0.07112647  0.09457786  0.47927083    -0.32670
C942        C  0.07989868  0.12191289  0.47577233     0.36380
H943        H  0.09202695  0.11976022  0.40663799     0.16750
O944        O  0.07548409  0.06898965  0.40772878    -0.60170
H945        H  0.06608057  0.08754483  0.49981271     0.16770
O946        O  0.08151826  0.13901629  0.49826856    -0.60270
H947        H  0.10035046  0.13618724  0.50560231     0.43760
H948        H  0.09432529  0.06128673  0.40527365     0.43720
C949        C  0.97032705  0.03007903  0.45665925    -0.05350
C950        C  0.95049274  0.00915819  0.45349048    -0.32780
C951        C  0.92247537  0.01554739  0.44981852     0.36470
C952        C  0.91388733  0.04332480  0.44955547    -0.05700
C953        C  0.93376856  0.06416081  0.45278261    -0.32670
C954        C  0.96175433  0.05774399  0.45555394     0.36380
H955        H  0.95685337  0.98769234  0.45344038     0.16750
O956        O  0.90418642  0.99478680  0.44395948    -0.60170
H957        H  0.92775537  0.08570297  0.45199551     0.16770
O958        O  0.98057141  0.07866927  0.45469935    -0.60270
H959        H  0.98644887  0.07988132  0.43516375     0.43760
H960        H  0.90377938  0.98281911  0.46042490     0.43720
C961        C  0.98289808  0.86889309  0.46205761    -0.05350
C962        C  0.97803888  0.88985272  0.44273069    -0.32780
C963        C  0.98644447  0.91696542  0.44753685     0.36470
C964        C  0.00001550  0.92393016  0.47206587    -0.05700
C965        C  0.00366017  0.90355195  0.49220714    -0.32670
C966        C  0.99539517  0.87611511  0.48726995     0.36380
H967        H  0.96871050  0.88515779  0.42309710     0.16750
O968        O  0.98275170  0.93630757  0.42733315    -0.60170
H969        H  0.01444159  0.90849054  0.51103853     0.16770
O970        O  0.00029286  0.85652661  0.50691003    -0.60270
H971        H  0.98329319  0.85611801  0.51833933     0.43760
H972        H  0.96328452  0.94238488  0.42924186     0.43720
C973        C  0.18200813  0.95771524  0.46117237    -0.05350
C974        C  0.16882836  0.95389534  0.48666024    -0.32780
C975        C  0.14112669  0.96176455  0.49031006     0.36470
C976        C  0.12655532  0.97325900  0.46813747    -0.05700
C977        C  0.14053232  0.97860981  0.44334631    -0.32670
C978        C  0.16798678  0.97100528  0.43980776     0.36380
H979        H  0.17952449  0.94349806  0.50316949     0.16750
O980        O  0.12799528  0.95608346  0.51467275    -0.60170
H981        H  0.12990529  0.98817727  0.42628608     0.16770
O982        O  0.18062231  0.97549556  0.41489641    -0.60270
H983        H  0.19012141  0.99348040  0.41694728     0.43760
H984        H  0.13237506  0.97183669  0.52695808     0.43720
C985        C  0.62527296  0.02860140  0.46898552    -0.05350
C986        C  0.64658104  0.03089997  0.48823050    -0.32780
C987        C  0.67403909  0.03386050  0.47964144     0.36470
C988        C  0.68035034  0.03524530  0.45135029    -0.05700
C989        C  0.65897784  0.03198067  0.43212980    -0.32670
C990        C  0.63159600  0.02864730  0.44079318     0.36380
H991        H  0.64178878  0.03143289  0.51000996     0.16750
O992        O  0.69408802  0.03784527  0.49901970    -0.60170
H993        H  0.66342185  0.03287753  0.41027908     0.16770
O994        O  0.61106354  0.02670593  0.42159962    -0.60270
H995        H  0.60464385  0.04592621  0.41866161     0.43760
H996        H  0.69825839  0.01917773  0.50623673     0.43720
C997        C  0.40998438  0.04744813  0.53657119    -0.05350
C998        C  0.43263533  0.05073058  0.55425218    -0.32780
C999        C  0.45972963  0.04836472  0.54455328     0.36470
C1000       C  0.46496292  0.04182081  0.51678170    -0.05700
C1001       C  0.44259383  0.03758445  0.49911610    -0.32670
C1002       C  0.41528621  0.04043584  0.50872313     0.36380
H1003       H  0.42954332  0.05536949  0.57585070     0.16750
O1004       O  0.48106345  0.05181112  0.56266064    -0.60170
H1005       H  0.44626086  0.03317262  0.47756376     0.16770
O1006       O  0.39415208  0.03703616  0.49046347    -0.60270
H1007       H  0.39133115  0.05547101  0.48212596     0.43760
H1008       H  0.48383309  0.07205315  0.56396666     0.43720
C1009       C  0.49560421  0.04481970  0.36606668    -0.05350
C1010       C  0.50990256  0.06662447  0.37839157    -0.32780
C1011       C  0.51856043  0.06497889  0.40573235     0.36470
C1012       C  0.51281520  0.04114484  0.42144745    -0.05700
C1013       C  0.49817553  0.01944120  0.40899950    -0.32670
C1014       C  0.48968999  0.02111260  0.38150075     0.36380
H1015       H  0.51404923  0.08524359  0.36681737     0.16750
O1016       O  0.53253165  0.08692363  0.41678435    -0.60170
H1017       H  0.49353623  0.00094245  0.42046003     0.16770
O1018       O  0.47443578  0.00011645  0.37034399    -0.60270
H1019       H  0.48810218  0.98722279  0.36208052     0.43760
H1020       H  0.51805218  0.09924736  0.42456775     0.43720
C1021       C  0.58623187  0.04494879  0.63671021    -0.05350
C1022       C  0.57721240  0.01855202  0.62892118    -0.32780
C1023       C  0.56728871  0.01358039  0.60220545     0.36470
C1024       C  0.56513022  0.03551780  0.58326062    -0.05700
C1025       C  0.57287786  0.06215089  0.59195320    -0.32670
C1026       C  0.58374714  0.06684035  0.61803095     0.36380
H1027       H  0.57902556  0.00149725  0.64314855     0.16750
O1028       O  0.56069777  0.98715397  0.59468892    -0.60170
H1029       H  0.57126709  0.07962401  0.57822043     0.16770
O1030       O  0.59119030  0.09318002  0.62534424    -0.60270
H1031       H  0.60860414  0.09682049  0.61519803     0.43760
H1032       H  0.57852499  0.97739327  0.59204526     0.43720
C1033       C  0.17792360  0.05395314  0.53323385    -0.05350
C1034       C  0.16737195  0.03687576  0.55370802    -0.32780
C1035       C  0.14008868  0.02801028  0.55302422     0.36470
C1036       C  0.12241985  0.03600117  0.53116804    -0.05700
C1037       C  0.13333626  0.05279601  0.51022999    -0.32670
C1038       C  0.16087788  0.06189248  0.51128545     0.36380
H1039       H  0.18028359  0.03083139  0.57080655     0.16750
O1040       O  0.13126302  0.01102512  0.57378765    -0.60170
H1041       H  0.12055502  0.05898334  0.49312696     0.16770
O1042       O  0.17071281  0.07911180  0.49123164    -0.60270
H1043       H  0.17883319  0.06668967  0.47704102     0.43760
H1044       H  0.12539143  0.02361167  0.58890273     0.43720
C1045       C  0.09163619  0.86326121  0.53958941    -0.05350
C1046       C  0.08898733  0.87482838  0.51331488    -0.32780
C1047       C  0.07897469  0.90193044  0.51020307     0.36470
C1048       C  0.07134586  0.91755473  0.53366687    -0.05700
C1049       C  0.07283290  0.90511623  0.55971181    -0.32670
C1050       C  0.08306760  0.87845434  0.56278647     0.36380
H1051       H  0.09565188  0.86324389  0.49532760     0.16750
O1052       O  0.07813635  0.91332648  0.48444777    -0.60170
H1053       H  0.06645971  0.91622938  0.57809430     0.16770
O1054       O  0.08425526  0.86718916  0.58862202    -0.60270
H1055       H  0.10035406  0.87596894  0.59756397     0.43760
H1056       H  0.06211465  0.90466292  0.47528745     0.43720
C1057       C  0.99812687  0.13106360  0.55715707    -0.05350
C1058       C  0.00122886  0.12154557  0.53013777    -0.32780
C1059       C  0.00720551  0.09356881  0.52458248     0.36470
C1060       C  0.01022586  0.07465441  0.54632509    -0.05700
C1061       C  0.00713407  0.08441416  0.57346161    -0.32670
C1062       C  0.00079332  0.11217427  0.57894920     0.36380
H1063       H  0.99862729  0.13581256  0.51323095     0.16750
O1064       O  0.01041460  0.08472609  0.49798245    -0.60170
H1065       H  0.00991055  0.07047666  0.59060525     0.16770
O1066       O  0.99849302  0.12092281  0.60576533    -0.60270
H1067       H  0.98047405  0.11381928  0.61233443     0.43760
H1068       H  0.01736358  0.10045441  0.48697667     0.43720
C1069       C  0.90920540  0.95930608  0.54893653    -0.05350
C1070       C  0.93078591  0.94938219  0.56530990    -0.32780
C1071       C  0.95761198  0.95906592  0.56231005     0.36470
C1072       C  0.96382267  0.97943014  0.54256432    -0.05700
C1073       C  0.94235023  0.98977677  0.52624617    -0.32670
C1074       C  0.91518102  0.98002747  0.52939609     0.36380
H1075       H  0.92713863  0.93395468  0.58089281     0.16750
O1076       O  0.97780487  0.94749837  0.57825713    -0.60170
H1077       H  0.94657392  0.00549146  0.51106449     0.16770
O1078       O  0.89498573  0.99019411  0.51260902    -0.60270
H1079       H  0.89099850  0.00908002  0.51958407     0.43760
H1080       H  0.97675828  0.95750438  0.59609442     0.43720
C1081       C  0.49631806  0.01397438  0.07804019    -0.05350
C1082       C  0.51201948  0.00281977  0.09957427    -0.32780
C1083       C  0.50817522  0.01178903  0.12699637     0.36470
C1084       C  0.48845797  0.03247880  0.13331072    -0.05700
C1085       C  0.47217852  0.04271287  0.11178034    -0.32670
C1086       C  0.47588872  0.03380912  0.08465776     0.36380
H1087       H  0.52743012  0.98718174  0.09517785     0.16750
O1088       O  0.52455250  0.00094461  0.14713674    -0.60170
H1089       H  0.45624730  0.05792537  0.11570756     0.16770
O1090       O  0.45991046  0.04559055  0.06465542    -0.60270
H1091       H  0.44262254  0.03471119  0.06453483     0.43760
H1092       H  0.51701528  0.98230424  0.15079582     0.43720
C1093       C  0.50482125  0.94699278  0.86426590    -0.05350
C1094       C  0.49125088  0.93455151  0.88674651    -0.32780
C1095       C  0.49653456  0.94262566  0.91376481     0.36470
C1096       C  0.51575900  0.96341664  0.91920659    -0.05700
C1097       C  0.53101787  0.97444992  0.89734729    -0.32670
C1098       C  0.52548182  0.96675937  0.86998189     0.36380
H1099       H  0.47552799  0.91913290  0.88378734     0.16750
O1100       O  0.48187351  0.93079195  0.93480643    -0.60170
H1101       H  0.54621522  0.99009649  0.90127768     0.16770
O1102       O  0.54026747  0.97890494  0.84922312    -0.60270
H1103       H  0.53261044  0.99785240  0.84761977     0.43760
H1104       H  0.49248410  0.91397630  0.93964295     0.43720
C1105       C  0.49699431  0.13788547  0.96271305    -0.05350
C1106       C  0.52400331  0.12748648  0.96234732    -0.32780
C1107       C  0.52936913  0.10023678  0.97060391     0.36470
C1108       C  0.50758180  0.08354824  0.98015376    -0.05700
C1109       C  0.48091882  0.09483367  0.98211373    -0.32670
C1110       C  0.47550979  0.12163355  0.97323356     0.36380
H1111       H  0.54064660  0.13990280  0.95413638     0.16750
O1112       O  0.55552921  0.08966512  0.96793813    -0.60170
H1113       H  0.46394284  0.08250682  0.98977170     0.16770
O1114       O  0.44911062  0.13183550  0.97486624    -0.60270
H1115       H  0.43941737  0.12394727  0.95874426     0.43760
H1116       H  0.55980074  0.08982435  0.94796315     0.43720
C1117       C  0.50159442  0.86591009  0.04668234    -0.05350
C1118       C  0.48758042  0.87412219  0.02303425    -0.32780
C1119       C  0.48850090  0.90156888  0.01427865     0.36470
C1120       C  0.50439254  0.92121360  0.02879921    -0.05700
C1121       C  0.51902394  0.91264610  0.05211789    -0.32670
C1122       C  0.51750752  0.88526685  0.06119998     0.36380
H1123       H  0.47493781  0.85944674  0.01194839     0.16750
O1124       O  0.47388000  0.90883425  0.99136456    -0.60170
H1125       H  0.53115399  0.92731325  0.06371538     0.16770
O1126       O  0.53122477  0.87769723  0.08458246    -0.60270
H1127       H  0.54980802  0.87182368  0.07818539     0.43760
H1128       H  0.45488773  0.91264340  0.99809301     0.43720
C1129       C  0.58225558  0.05077888  0.86502998    -0.05350
C1130       C  0.55770624  0.05522951  0.87980968    -0.32780
C1131       C  0.55490225  0.04562234  0.90691631     0.36470
C1132       C  0.57705932  0.03161382  0.91953021    -0.05700
C1133       C  0.60130717  0.02679365  0.90410175    -0.32670
C1134       C  0.60399016  0.03628219  0.87724200     0.36380
H1135       H  0.54091485  0.06657703  0.87050037     0.16750
O1136       O  0.53070953  0.05044459  0.92089080    -0.60170
H1137       H  0.61851493  0.01559172  0.91281437     0.16770
O1138       O  0.62796424  0.03113411  0.86292866    -0.60270
H1139       H  0.64080043  0.04599234  0.86856026     0.43760
H1140       H  0.51831728  0.03513477  0.91549294     0.43720
C1141       C  0.59247350  0.96409347  0.13257195    -0.05350
C1142       C  0.59036100  0.94572932  0.11026726    -0.32780
C1143       C  0.58641589  0.95545260  0.08363978     0.36470
C1144       C  0.58367042  0.98392382  0.07891841    -0.05700
C1145       C  0.58491008  0.00241913  0.10111870    -0.32670
C1146       C  0.58947789  0.99270535  0.12791597     0.36380
H1147       H  0.59226495  0.92366975  0.11335410     0.16750
O1148       O  0.58513566  0.93691039  0.06223323    -0.60170
H1149       H  0.58361333  0.02438389  0.09752765     0.16770
O1150       O  0.59335503  0.01135478  0.14886927    -0.60270
H1151       H  0.57503301  0.01982851  0.15239736     0.43760
H1152       H  0.60458474  0.93308413  0.05701566     0.43720
C1153       C  0.58744665  0.86092998  0.96454369    -0.05350
C1154       C  0.60991486  0.87589641  0.97454019    -0.32780
C1155       C  0.60651849  0.90291695  0.98405437     0.36470
C1156       C  0.58030327  0.91557523  0.98325500    -0.05700
C1157       C  0.55742468  0.89988988  0.97494978    -0.32670
C1158       C  0.56087157  0.87258439  0.96576290     0.36380
H1159       H  0.63038462  0.86682977  0.97423471     0.16750
O1160       O  0.62899862  0.91681521  0.99399945    -0.60170
H1161       H  0.53711053  0.90922027  0.97418405     0.16770
O1162       O  0.53860735  0.85833033  0.95591724    -0.60270
H1163       H  0.52982283  0.85004434  0.97238889     0.43760
H1164       H  0.63963963  0.92252541  0.97749812     0.43720
C1165       C  0.58734335  0.13436050  0.04795218    -0.05350
C1166       C  0.57352927  0.11530453  0.06470176    -0.32780
C1167       C  0.57024412  0.08776558  0.05619619     0.36470
C1168       C  0.58173913  0.07886554  0.03095565    -0.05700
C1169       C  0.59543609  0.09812790  0.01422993    -0.32670
C1170       C  0.59778280  0.12575755  0.02227958     0.36380
H1171       H  0.56545644  0.12176439  0.08456494     0.16750
O1172       O  0.55616016  0.06970947  0.07277024    -0.60170
H1173       H  0.60424106  0.09178063  0.99464097     0.16770
O1174       O  0.61111280  0.14396616  0.00529680    -0.60270
H1175       H  0.63080589  0.14290176  0.01057952     0.43760
H1176       H  0.56654288  0.06905430  0.09027073     0.43720
C1177       C  0.48894770  0.36581831  0.96009504    -0.05350
C1178       C  0.48662301  0.37947149  0.98552467    -0.32780
C1179       C  0.49668091  0.40650358  0.98876813     0.36470
C1180       C  0.50984048  0.41972392  0.96645011    -0.05700
C1181       C  0.51225276  0.40546171  0.94119110    -0.32670
C1182       C  0.50185069  0.37896802  0.93791794     0.36380
H1183       H  0.47664160  0.36934351  0.00271472     0.16750
O1184       O  0.49451818  0.41928527  0.01394228    -0.60170
H1185       H  0.52236841  0.41475047  0.92361021     0.16770
O1186       O  0.50503592  0.36572106  0.91305651    -0.60270
H1187       H  0.48984005  0.37273474  0.90141656     0.43760
H1188       H  0.47453234  0.42264486  0.01684795     0.43720
C1189       C  0.56112268  0.57835565  0.95478394    -0.05350
C1190       C  0.56539115  0.59604728  0.97732272    -0.32780
C1191       C  0.57479029  0.62307977  0.97356988     0.36470
C1192       C  0.58155354  0.63230668  0.94701250    -0.05700
C1193       C  0.57788838  0.61455865  0.92448116    -0.32670
C1194       C  0.56742657  0.58798339  0.92811104     0.36380
H1195       H  0.56268948  0.58862284  0.99801448     0.16750
O1196       O  0.57844837  0.63985065  0.99607017    -0.60170
H1197       H  0.58307330  0.62138061  0.90389175     0.16770
O1198       O  0.56409340  0.57139561  0.90542588    -0.60270
H1199       H  0.54465384  0.57413502  0.89981198     0.43760
H1200       H  0.59732746  0.63570741  0.00264361     0.43720
C1201       C  0.41161957  0.54546628  0.95031498    -0.05350
C1202       C  0.42316981  0.54675098  0.97660576    -0.32780
C1203       C  0.45111212  0.54010496  0.98060507     0.36470
C1204       C  0.46746343  0.53106385  0.95806692    -0.05700
C1205       C  0.45539881  0.52925992  0.93191052    -0.32670
C1206       C  0.42785906  0.53650068  0.92794496     0.36380
H1207       H  0.41072540  0.55367731  0.99392076     0.16750
O1208       O  0.46179627  0.54092888  0.00671144    -0.60170
H1209       H  0.46736080  0.52220976  0.91431556     0.16770
O1210       O  0.41696001  0.53482744  0.90200882    -0.60270
H1211       H  0.40842949  0.51627556  0.90094555     0.43760
H1212       H  0.45705960  0.55933138  0.01446941     0.43720
C1213       C  0.68137062  0.45898047  0.96135473    -0.05350
C1214       C  0.66017398  0.43961431  0.96470372    -0.32780
C1215       C  0.63312118  0.44822401  0.96913983     0.36470
C1216       C  0.62701895  0.47649870  0.97077187    -0.05700
C1217       C  0.64817444  0.49597729  0.96918041    -0.32670
C1218       C  0.67538615  0.48739079  0.96444147     0.36380
H1219       H  0.66440483  0.41769203  0.96298680     0.16750
O1220       O  0.61260704  0.42888909  0.97133329    -0.60170
H1221       H  0.64338889  0.51781884  0.96998090     0.16770
O1222       O  0.69550014  0.50695214  0.96122979    -0.60270
H1223       H  0.69542933  0.51154320  0.94136500     0.43760
H1224       H  0.60687263  0.42492355  0.95216731     0.43720
C1225       C  0.12552489  0.52889519  0.96928418    -0.05350
C1226       C  0.13049366  0.53661879  0.94206703    -0.32780
C1227       C  0.15720975  0.54209069  0.93276098     0.36470
C1228       C  0.17968753  0.54018321  0.95104135    -0.05700
C1229       C  0.17480514  0.53105680  0.97805062    -0.32670
C1230       C  0.14787390  0.52580612  0.98729598     0.36380
H1231       H  0.11342029  0.53960243  0.92820221     0.16750
O1232       O  0.16107488  0.54903614  0.90566833    -0.60170
H1233       H  0.19162409  0.52960789  0.99253443     0.16770
O1234       O  0.14347121  0.51965538  0.01441665    -0.60270
H1235       H  0.14039821  0.53768687  0.02372418     0.43760
H1236       H  0.15208477  0.56732442  0.90344114     0.43720
C1237       C  0.08691611  0.55393209  0.13217696    -0.05350
C1238       C  0.06583283  0.53453837  0.12765294    -0.32780
C1239       C  0.05563931  0.52961727  0.10109983     0.36470
C1240       C  0.06717360  0.54339649  0.07834383    -0.05700
C1241       C  0.08754988  0.56330187  0.08302082    -0.32670
C1242       C  0.09710657  0.56893718  0.10944169     0.36380
H1243       H  0.05714572  0.52308834  0.14468049     0.16750
O1244       O  0.03410129  0.51174754  0.09781580    -0.60170
H1245       H  0.09626954  0.57484414  0.06604060     0.16770
O1246       O  0.11535958  0.59023448  0.11274505    -0.60270
H1247       H  0.13296578  0.58361809  0.10449950     0.43760
H1248       H  0.01726921  0.52342184  0.09861575     0.43720
C1249       C  0.98610093  0.53538371  0.86750042    -0.05350
C1250       C  0.00336456  0.55566034  0.87812568    -0.32780
C1251       C  0.01314642  0.55406949  0.90496023     0.36470
C1252       C  0.00564965  0.53160724  0.92225778    -0.05700
C1253       C  0.98840524  0.51100729  0.91132913    -0.32670
C1254       C  0.97849915  0.51292331  0.88417341     0.36380
H1255       H  0.00916492  0.57313854  0.86551601     0.16750
O1256       O  0.03012610  0.57485247  0.91386973    -0.60170
H1257       H  0.98263384  0.49342215  0.92374144     0.16770
O1258       O  0.96102130  0.49308260  0.87430594    -0.60270
H1259       H  0.97318722  0.47906451  0.86549667     0.43760
H1260       H  0.04877251  0.56988792  0.90690382     0.43720
C1261       C  0.91383508  0.54991859  0.04698973    -0.05350
C1262       C  0.93033549  0.57345030  0.04346038    -0.32780
C1263       C  0.95848398  0.57114353  0.03703213     0.36470
C1264       C  0.97105236  0.54491797  0.03463065    -0.05700
C1265       C  0.95459893  0.52140702  0.03881565    -0.32670
C1266       C  0.92618599  0.52371366  0.04449151     0.36380
H1267       H  0.92127186  0.59384142  0.04558630     0.16750
O1268       O  0.97347215  0.59475885  0.03302464    -0.60170
H1269       H  0.96336900  0.50112133  0.03623390     0.16770
O1270       O  0.91090392  0.50027936  0.04839993    -0.60270
H1271       H  0.90570339  0.49408239  0.02966081     0.43760
H1272       H  0.98173625  0.59900803  0.05116667     0.43720
C1273       C  0.90817531  0.45102170  0.96208293    -0.05350
C1274       C  0.91835302  0.47791291  0.96467340    -0.32780
C1275       C  0.94533257  0.48242858  0.97385062     0.36470
C1276       C  0.96218687  0.45964698  0.98049652    -0.05700
C1277       C  0.95125049  0.43290832  0.97937560    -0.32670
C1278       C  0.92448579  0.42849268  0.97015092     0.36380
H1279       H  0.90589739  0.49531025  0.95821463     0.16750
O1280       O  0.95594320  0.50870011  0.97367660    -0.60170
H1281       H  0.96369431  0.41524299  0.98510666     0.16770
O1282       O  0.91427148  0.40210963  0.96932892    -0.60270
H1283       H  0.92331305  0.39318284  0.95321015     0.43760
H1284       H  0.94234970  0.52062197  0.98342439     0.43720
C1285       C  0.99334334  0.45250742  0.12946194    -0.05350
C1286       C  0.02108568  0.44887801  0.12200455    -0.32780
C1287       C  0.02943832  0.45085994  0.09440777     0.36470
C1288       C  0.01007966  0.45737911  0.07377005    -0.05700
C1289       C  0.98248669  0.46167063  0.08132255    -0.32670
C1290       C  0.97399923  0.45898523  0.10885018     0.36380
H1291       H  0.03617145  0.44355525  0.13746886     0.16750
O1292       O  0.05667559  0.44649106  0.08781133    -0.60170
H1293       H  0.96722779  0.46594218  0.06580584     0.16770
O1294       O  0.94677347  0.46319026  0.11553408    -0.60270
H1295       H  0.93698580  0.44660236  0.10867730     0.43760
H1296       H  0.06523355  0.46505554  0.08789039     0.43720
C1297       C  0.08830967  0.45589223  0.86216851    -0.05350
C1298       C  0.08050589  0.48231668  0.87139251    -0.32780
C1299       C  0.07201469  0.48670050  0.89893549     0.36470
C1300       C  0.07064348  0.46417087  0.91723019    -0.05700
C1301       C  0.07738920  0.43764649  0.90719409    -0.32670
C1302       C  0.08616192  0.43344886  0.88019727     0.36380
H1303       H  0.08177367  0.49967940  0.85747388     0.16750
O1304       O  0.06440514  0.51266087  0.90760199    -0.60170
H1305       H  0.07598759  0.41968988  0.92032251     0.16770
O1306       O  0.09157842  0.40702309  0.87126501    -0.60270
H1307       H  0.10909398  0.40162582  0.88023697     0.43760
H1308       H  0.07839322  0.52559725  0.90027706     0.43720
C1309       C  0.17453117  0.46215324  0.05697023    -0.05350
C1310       C  0.16624563  0.44594309  0.03475389    -0.32780
C1311       C  0.13932337  0.44736623  0.02501204     0.36470
C1312       C  0.11994542  0.46582732  0.03722387    -0.05700
C1313       C  0.12831891  0.48210704  0.05969001    -0.32670
C1314       C  0.15547013  0.48026746  0.06961396     0.36380
H1315       H  0.18068860  0.43168908  0.02511812     0.16750
O1316       O  0.13256725  0.43114114  0.00283659    -0.60170
H1317       H  0.11394443  0.49637505  0.06937098     0.16770
O1318       O  0.16322476  0.49626309  0.09156593    -0.60270
H1319       H  0.16988241  0.51375776  0.08339377     0.43760
H1320       H  0.12812008  0.41279635  0.01066154     0.43720
C1321       C  0.45852166  0.47997890  0.03445504    -0.05350
C1322       C  0.44781137  0.47739842  0.06128366    -0.32780
C1323       C  0.42115451  0.46763486  0.06595636     0.36470
C1324       C  0.40410507  0.46090447  0.04365797    -0.05700
C1325       C  0.41393634  0.46491212  0.01673816    -0.32670
C1326       C  0.44111738  0.47395280  0.01199835     0.36380
H1327       H  0.46043286  0.48224172  0.07896886     0.16750
O1328       O  0.41178304  0.46498308  0.09251602    -0.60170
H1329       H  0.40103108  0.45965625  0.99938012     0.16770
O1330       O  0.45071393  0.47558725  0.98547305    -0.60270
H1331       H  0.45665288  0.45658713  0.98052290     0.43760
H1332       H  0.42074270  0.44802255  0.09959537     0.43720
C1333       C  0.51152618  0.63541119  0.05546660    -0.05350
C1334       C  0.50784111  0.62405275  0.02928541    -0.32780
C1335       C  0.51468748  0.59635469  0.02393337     0.36470
C1336       C  0.52732664  0.58019675  0.04450517    -0.05700
C1337       C  0.53145312  0.59195438  0.07062672    -0.32670
C1338       C  0.52344874  0.61924559  0.07623099     0.36380
H1339       H  0.49809852  0.63620355  0.01336853     0.16750
O1340       O  0.50849197  0.58515350  0.99876313    -0.60170
H1341       H  0.54057578  0.57977877  0.08687801     0.16770
O1342       O  0.52689753  0.62980412  0.10221127    -0.60270
H1343       H  0.54497755  0.63929300  0.10168616     0.43760
H1344       H  0.48899692  0.58994553  0.99494454     0.43720
C1345       C  0.62101790  0.53157429  0.03977764    -0.05350
C1346       C  0.63283350  0.54821096  0.01918781    -0.32780
C1347       C  0.66092217  0.55553009  0.02003706     0.36470
C1348       C  0.67785162  0.54596729  0.04144657    -0.05700
C1349       C  0.66622682  0.52935276  0.06190021    -0.32670
C1350       C  0.63824080  0.52220123  0.06131349     0.36380
H1351       H  0.62031478  0.55557175  0.00233670     0.16750
O1352       O  0.67165255  0.57207251  0.99985226    -0.60170
H1353       H  0.67880446  0.52245288  0.07891105     0.16770
O1354       O  0.62810413  0.50587352  0.08198689    -0.60270
H1355       H  0.62245975  0.51888598  0.09682402     0.43760
H1356       H  0.66823743  0.59124259  0.00631766     0.43720
C1357       C  0.59684684  0.36623863  0.04144567    -0.05350
C1358       C  0.60939309  0.38917853  0.05423577    -0.32780
C1359       C  0.59988295  0.41598859  0.04989569     0.36470
C1360       C  0.57776949  0.42068548  0.03211977    -0.05700
C1361       C  0.56654813  0.39851217  0.01751589    -0.32670
C1362       C  0.57550246  0.37136930  0.02232597     0.36380
H1363       H  0.62624666  0.38671143  0.06840799     0.16750
O1364       O  0.61186099  0.43749450  0.06384411    -0.60170
H1365       H  0.54991016  0.40203672  0.00335297     0.16770
O1366       O  0.56285399  0.35027151  0.00847582    -0.60270
H1367       H  0.54513740  0.34730323  0.01832254     0.43760
H1368       H  0.62505539  0.44576001  0.05058807     0.43720
C1369       C  0.00224416  0.41945496  0.51463895    -0.05350
C1370       C  0.99550490  0.41584722  0.54243616    -0.32780
C1371       C  0.99282238  0.38958690  0.55386961     0.36470
C1372       C  0.99561166  0.36578183  0.53714701    -0.05700
C1373       C  0.00305799  0.36923636  0.50932436    -0.32670
C1374       C  0.00660812  0.39585236  0.49808947     0.36380
H1375       H  0.99221997  0.43368961  0.55558886     0.16750
O1376       O  0.98844890  0.38750325  0.58171518    -0.60170
H1377       H  0.00523567  0.35136719  0.49599255     0.16770
O1378       O  0.01210204  0.39854647  0.47059169    -0.60270
H1379       H  0.03033348  0.38970264  0.46754486     0.43760
H1380       H  0.96992206  0.39560494  0.58519998     0.43720
C1381       C  0.00102536  0.63567574  0.45257044    -0.05350
C1382       C  0.99672321  0.62918542  0.48034271    -0.32780
C1383       C  0.00025036  0.60208975  0.48969012     0.36470
C1384       C  0.00928583  0.58115942  0.47143918    -0.05700
C1385       C  0.01505252  0.58784153  0.44400824    -0.32670
C1386       C  0.01038372  0.61476330  0.43436131     0.36380
H1387       H  0.98927010  0.64484820  0.49457160     0.16750
O1388       O  0.99406393  0.59598939  0.51657827    -0.60170
H1389       H  0.02181661  0.57189620  0.42974601     0.16770
O1390       O  0.01514900  0.62050694  0.40713709    -0.60270
H1391       H  0.99956134  0.61203511  0.39707129     0.43760
H1392       H  0.00999120  0.60263619  0.52740986     0.43720
C1393       C  0.99730867  0.45766341  0.36321701    -0.05350
C1394       C  0.00983307  0.43958355  0.38180979    -0.32780
C1395       C  0.01321180  0.44696069  0.40950487     0.36470
C1396       C  0.00264509  0.47222406  0.41950027    -0.05700
C1397       C  0.99052939  0.49061070  0.40069001    -0.32670
C1398       C  0.98812018  0.48362074  0.37269324     0.36380
H1399       H  0.01695543  0.41948106  0.37483232     0.16750
O1400       O  0.02610490  0.42889931  0.42676527    -0.60170
H1401       H  0.98286560  0.51048614  0.40772351     0.16770
O1402       O  0.97580021  0.50182457  0.35504309    -0.60270
H1403       H  0.95587278  0.49734141  0.35577124     0.43760
H1404       H  0.04526664  0.42743414  0.41975353     0.43720
C1405       C  0.00014029  0.53765887  0.63877130    -0.05350
C1406       C  0.02660267  0.53773599  0.62698035    -0.32780
C1407       C  0.03090876  0.52828058  0.59981407     0.36470
C1408       C  0.00845287  0.51854706  0.58418049    -0.05700
C1409       C  0.98228396  0.51731401  0.59674111    -0.32670
C1410       C  0.97802267  0.52695257  0.62360136     0.36380
H1411       H  0.04371988  0.54631168  0.63837375     0.16750
O1412       O  0.05651477  0.53082242  0.58799997    -0.60170
H1413       H  0.96474739  0.50955226  0.58540843     0.16770
O1414       O  0.95205246  0.52592068  0.63490213    -0.60270
H1415       H  0.94226020  0.54231401  0.62760635     0.43760
H1416       H  0.06923890  0.52016853  0.59982932     0.43720
C1417       C  0.46302568  0.95858986  0.48607986    -0.05350
C1418       C  0.45221794  0.97609409  0.46596799    -0.32780
C1419       C  0.42578260  0.97182916  0.45553175     0.36470
C1420       C  0.40982398  0.94979778  0.46531122    -0.05700
C1421       C  0.42027807  0.93260961  0.48594326    -0.32670
C1422       C  0.44694168  0.93670590  0.49611809     0.36380
H1423       H  0.46470825  0.99244818  0.45754969     0.16750
O1424       O  0.41618241  0.98850832  0.43494763    -0.60170
H1425       H  0.40811177  0.91547619  0.49346385     0.16770
O1426       O  0.45722929  0.91912640  0.51559808    -0.60270
H1427       H  0.46551550  0.90355932  0.50506013     0.43760
H1428       H  0.40643128  0.00384515  0.44451331     0.43720
C1429       C  0.62433751  0.96688844  0.52805248    -0.05350
C1430       C  0.64264986  0.94847879  0.51479797    -0.32780
C1431       C  0.66985592  0.94575920  0.52356611     0.36470
C1432       C  0.67915636  0.96147899  0.54594782    -0.05700
C1433       C  0.66138409  0.98058540  0.55866172    -0.32670
C1434       C  0.63420828  0.98375081  0.54950730     0.36380
H1435       H  0.63575003  0.93579203  0.49776437     0.16750
O1436       O  0.68696236  0.92703325  0.51072481    -0.60170
H1437       H  0.66842471  0.99262480  0.57609033     0.16770
O1438       O  0.61713484  0.00214879  0.56270875    -0.60270
H1439       H  0.62171313  0.02043316  0.55486794     0.43760
H1440       H  0.68405940  0.90940763  0.52061681     0.43720
C1441       C  0.56644280  0.96719255  0.41628721    -0.05350
C1442       C  0.54804275  0.96816665  0.39423406    -0.32780
C1443       C  0.55757056  0.96426638  0.36716879     0.36470
C1444       C  0.58579203  0.95886575  0.36217381    -0.05700
C1445       C  0.60414418  0.95880517  0.38440391    -0.32670
C1446       C  0.59463053  0.96269677  0.41124871     0.36380
H1447       H  0.52619706  0.97060475  0.39806378     0.16750
O1448       O  0.53889204  0.96373599  0.34612829    -0.60170
H1449       H  0.62596941  0.95520306  0.38106820     0.16770
O1450       O  0.61305633  0.96202406  0.43256782    -0.60270
H1451       H  0.61483062  0.94225161  0.43748951     0.43760
H1452       H  0.53574633  0.98338666  0.34138489     0.43720
C1453       C  0.51132623  0.95854665  0.57678919    -0.05350
C1454       C  0.49717145  0.98065494  0.58948913    -0.32780
C1455       C  0.48888981  0.97915897  0.61712395     0.36470
C1456       C  0.49436802  0.95522275  0.63234621    -0.05700
C1457       C  0.50815763  0.93304291  0.61978126    -0.32670
C1458       C  0.51670904  0.93451743  0.59231522     0.36380
H1459       H  0.49292172  0.99934894  0.57814338     0.16750
O1460       O  0.47472920  0.00081807  0.62883372    -0.60170
H1461       H  0.51201503  0.91431520  0.63127826     0.16770
O1462       O  0.53046007  0.91235831  0.58104127    -0.60270
H1463       H  0.51586995  0.90039516  0.57325347     0.43760
H1464       H  0.48912758  0.01309394  0.63649010     0.43720
C1465       C  0.07696377  0.57793774  0.53091141    -0.05350
C1466       C  0.06718969  0.60006308  0.51539118    -0.32780
C1467       C  0.07175796  0.62738613  0.52373735     0.36470
C1468       C  0.08682491  0.63292863  0.54801520    -0.05700
C1469       C  0.09632197  0.61027227  0.56353514    -0.32670
C1470       C  0.09194333  0.58314248  0.55488646     0.36380
H1471       H  0.05717112  0.59617907  0.49597053     0.16750
O1472       O  0.06159202  0.64821577  0.50771874    -0.60170
H1473       H  0.10802653  0.61316087  0.58213006     0.16770
O1474       O  0.10310474  0.56180678  0.56963606    -0.60270
H1475       H  0.12200725  0.55926051  0.56211668     0.43760
H1476       H  0.07465249  0.64968297  0.49200768     0.43720
C1477       C  0.08250523  0.41883031  0.48276700    -0.05350
C1478       C  0.08778584  0.41391490  0.45486955    -0.32780
C1479       C  0.09080502  0.38718630  0.44465388     0.36470
C1480       C  0.09040452  0.36444479  0.46271428    -0.05700
C1481       C  0.08446829  0.36922387  0.49077911    -0.32670
C1482       C  0.08028788  0.39630458  0.50083779     0.36380
H1483       H  0.08932254  0.43107307  0.44070494     0.16750
O1484       O  0.09407833  0.38367701  0.41680964    -0.60170
H1485       H  0.08403377  0.35213630  0.50505980     0.16770
O1486       O  0.07624886  0.40066542  0.52847820    -0.60270
H1487       H  0.05660795  0.39625988  0.53195448     0.43760
H1488       H  0.07526294  0.38021288  0.40972692     0.43720
C1489       C  0.07462679  0.52388505  0.41619477    -0.05350
C1490       C  0.08036006  0.55190300  0.41271787    -0.32780
C1491       C  0.08509163  0.56270033  0.38658820     0.36470
C1492       C  0.08421667  0.54525611  0.36326788    -0.05700
C1493       C  0.07691792  0.51736118  0.36666733    -0.32670
C1494       C  0.07231132  0.50657775  0.39305807     0.36380
H1495       H  0.08163966  0.56545824  0.43049433     0.16750
O1496       O  0.08989354  0.59048763  0.38402276    -0.60170
H1497       H  0.07605775  0.50363307  0.34903467     0.16770
O1498       O  0.06679797  0.47902271  0.39608240    -0.60270
H1499       H  0.08500089  0.47008307  0.39879344     0.43760
H1500       H  0.10806655  0.59375949  0.39270119     0.43720
C1501       C  0.09031146  0.45353495  0.63188533    -0.05350
C1502       C  0.06567977  0.44776360  0.61824632    -0.32780
C1503       C  0.06225898  0.45526264  0.59064550     0.36470
C1504       C  0.08378672  0.46865092  0.57633972    -0.05700
C1505       C  0.10830709  0.47471150  0.59044759    -0.32670
C1506       C  0.11162928  0.46722555  0.61793285     0.36380
H1507       H  0.04931598  0.43682867  0.62880792     0.16750
O1508       O  0.03804162  0.44892624  0.57777387    -0.60170
H1509       H  0.12509508  0.48526274  0.58018383     0.16770
O1510       O  0.13605169  0.47284596  0.63086630    -0.60270
H1511       H  0.13314565  0.49096467  0.64005140     0.43760
H1512       H  0.02391465  0.46108795  0.58639191     0.43720
loop_ 
_geom_bond_atom_site_label_1 
_geom_bond_atom_site_label_2 
_geom_bond_distance 
_geom_bond_site_symmetry_2 
_ccdc_geom_bond_type 
O1           Cu9   1.908       .  S
O1           C11   1.254       .  A
O2           Cu9   1.974       .  S
O2           C12   1.261       .  A
O3           Cu9   1.958       .  S
O3           C13   1.265       .  A
O4           Cu9   1.996       .  S
O4           C14   1.268       .  A
O5          Cu10   2.427       .  S
O5           C14   1.332       .  A
O6          Cu10   2.732       .  S
O6           C13   1.279       .  A
O7          Cu10   2.533       .  S
O7           C12   1.312       .  A
O8          Cu10   2.434       .  S
O8           C11   1.280       .  A
Cu9         Cu10   3.453       .  S
C11        C1465   1.462       .  S
C12        C1477   1.473       .  S
C13        C1489   1.463       .  S
C14        C1504   1.483       .  S
O15         Cu23   1.998       .  S
O15          C25   1.268       .  A
O16         Cu23   1.957       .  S
O16          C26   1.265       .  A
O17         Cu23   1.917       .  S
O17          C27   1.258       .  A
O18         Cu23   1.981       .  S
O18          C28   1.261       .  A
O19         Cu24   2.551   1_565  S
O19          C28   1.311       .  A
O20         Cu24   2.428   1_565  S
O20          C27   1.280       .  A
O21         Cu24   2.725   1_565  S
O21          C26   1.281       .  A
O22         Cu24   2.429   1_565  S
O22          C25   1.331       .  A
Cu23        Cu24   3.440   1_565  S
C25        C1453   1.484       .  S
C26        C1441   1.463       .  S
C27        C1429   1.478       .  S
C28        C1417   1.467       .  S
O29         Cu37   1.920       .  S
O29          C39   1.256   1_655  A
O30         Cu37   1.981       .  S
O30          C40   1.261   1_655  A
O31         Cu37   1.967       .  S
O31          C41   1.268   1_655  A
O32         Cu37   2.018       .  S
O32          C42   1.270   1_655  A
O33         Cu38   2.439       .  S
O33          C42   1.332       .  A
O34         Cu38   2.738       .  S
O34          C41   1.284       .  A
O35         Cu38   2.553       .  S
O35          C40   1.314       .  A
O36         Cu38   2.450       .  S
O36          C39   1.282       .  A
Cu37        Cu38   3.441   1_655  S
C39        C1384   1.475       .  S
C40        C1369   1.486       .  S
C41        C1408   1.489       .  S
C42        C1396   1.489       .  S
O43         Cu51   2.714   1_554  S
O43          C53   1.289       .  A
O44         Cu51   2.456   1_554  S
O44          C54   1.335       .  A
O45         Cu51   2.421   1_554  S
O45          C55   1.274       .  A
O46         Cu51   2.588   1_554  S
O46          C56   1.306       .  A
O47         Cu52   1.985       .  S
O47          C56   1.259       .  A
O48         Cu52   1.929       .  S
O48          C55   1.256       .  A
O49         Cu52   2.003       .  S
O49          C54   1.271       .  A
O50         Cu52   1.961       .  S
O50          C53   1.270       .  A
Cu51        Cu52   3.437   1_556  S
C53        C1321   1.490       .  S
C54        C1345   1.498       .  S
C55        C1360   1.468       .  S
C56        C1336   1.485       .  S
N57          N58   1.324       .  A
N57          C61   1.351       .  A
N57         Cu65   2.095       .  S
N58          C59   1.342       .  A
N58         Cu64   2.073       .  S
C59          C60   1.381       .  A
C59          H62   1.082       .  S
C60        C1324   1.479       .  S
C60          C61   1.387       .  A
C61          H63   1.082       .  S
Cu64         N67   2.072       .  S
Cu65         N75   2.096       .  S
Cu66         N68   2.062       .  S
Cu66         N74   2.063       .  S
N67          N68   1.320       .  A
N67          C71   1.346       .  A
N68          C69   1.343       .  A
C69          C70   1.381       .  A
C69          H72   1.082       .  S
C70         C916   1.468       .  S
C70          C71   1.384       .  A
C71          H73   1.082       .  S
N74          N75   1.323       .  A
N74          C78   1.343       .  A
N75          C76   1.348       .  A
C76          C77   1.388       .  A
C76          H79   1.082       .  S
C77        C1309   1.472       .  S
C77          C78   1.379       .  A
C78          H80   1.082       .  S
N81          N82   1.324       .  A
N81          C85   1.349       .  A
N81         Cu89   2.087       .  S
N82          C83   1.340       .  A
N82         Cu88   2.057       .  S
C83          C84   1.374       .  A
C83          H86   1.082       .  S
C84        C1501   1.466       .  S
C84          C85   1.384       .  A
C85          H87   1.082       .  S
Cu88         N91   2.056       .  S
Cu89         N99   2.087       .  S
Cu90         N92   2.064       .  S
Cu90         N98   2.065       .  S
N91          N92   1.319       .  A
N91          C95   1.343       .  A
N92          C93   1.345       .  A
C93          C94   1.384       .  A
C93          H96   1.082       .  S
C94         C861   1.467       .  S
C94          C95   1.382       .  A
C95          H97   1.082       .  S
N98          N99   1.324       .  A
N98         C102   1.338       .  A
N99         C100   1.351       .  A
C100        C101   1.386       .  A
C100        H103   1.082       .  S
C101       C1297   1.476       .  S
C101        C102   1.379       .  A
C102        H104   1.082       .  S
N105        N106   1.325       .  A
N105        C109   1.354       .  A
N105       Cu113   2.113       .  S
N106        C107   1.340       .  A
N106       Cu112   2.063       .  S
C107        C108   1.376       .  A
C107        H110   1.082       .  S
C108       C1393   1.480       .  S
C108        C109   1.391       .  A
C109        H111   1.082   1_655  S
Cu112       N115   2.062       .  S
Cu113       N123   2.113       .  S
Cu114       N116   2.057       .  S
Cu114       N122   2.058       .  S
N115        N116   1.319       .  A
N115        C119   1.344       .  A
N116        C117   1.343       .  A
C117        C118   1.382       .  A
C117        H120   1.082       .  S
C118        C758   1.466       .  S
C118        C119   1.383       .  A
C119        H121   1.082       .  S
N122        N123   1.323       .  A
N122        C126   1.341       .  A
N123        C124   1.354       .  A
C124        C125   1.393       .  A
C124        H127   1.082   1_655  S
C125       C1285   1.484       .  S
C125        C126   1.378       .  A
C126        H128   1.082       .  S
O129       Cu137   2.452       .  S
O129        C139   1.279       .  A
O130       Cu137   2.666   1_554  S
O130        C140   1.291       .  A
O131       Cu137   2.649   1_554  S
O131        C141   1.300       .  A
O132       Cu137   2.423   1_654  S
O132        C142   1.322   1_554  A
O133       Cu138   1.992       .  S
O133        C142   1.273   1_455  A
O134       Cu138   1.939   1_554  S
O134        C141   1.272       .  A
O135       Cu138   1.957   1_554  S
O135        C140   1.251       .  A
O136       Cu138   1.899       .  S
O136        C139   1.253       .  A
Cu137      Cu138   3.451       .  S
C139       C1300   1.490       .  S
C140       C1288   1.481       .  S
C141       C1312   1.487       .  S
C142       C1276   1.470       .  S
N143        N144   1.324       .  A
N143        C147   1.358       .  A
N143       Cu151   2.136       .  S
N144        C145   1.339       .  A
N144       Cu150   2.048       .  S
C145        C146   1.374       .  A
C145        H148   1.082       .  S
C146       C1261   1.486       .  S
C146        C147   1.398       .  A
C147        H149   1.082       .  S
Cu150       N153   2.047       .  S
Cu151       N161   2.137       .  S
Cu152       N154   2.064       .  S
Cu152       N160   2.066       .  S
N153        N154   1.318       .  A
N153        C157   1.342       .  A
N154        C155   1.345       .  A
C155        C156   1.384       .  A
C155        H158   1.082       .  S
C156        C772   1.465       .  S
C156        C157   1.380       .  A
C157        H159   1.082       .  S
N160        N161   1.326       .  A
N160        C164   1.342       .  A
N161        C162   1.357       .  A
C162        C163   1.395       .  A
C162        H165   1.082       .  S
C163       C1348   1.483       .  S
C163        C164   1.375       .  A
C164        H166   1.082       .  S
N167        N168   1.324       .  A
N167        C171   1.351   1_655  A
N167       Cu175   2.097       .  S
N168        C169   1.343       .  A
N168       Cu174   2.073       .  S
C169        C170   1.380       .  A
C169        H172   1.082       .  S
C170       C1405   1.477   1_655  S
C170        C171   1.386   1_655  A
C171        H173   1.082       .  S
Cu174       N177   2.072       .  S
Cu175       N185   2.098       .  S
Cu176       N178   2.072       .  S
Cu176       N184   2.073       .  S
N177        N178   1.321       .  A
N177        C181   1.346       .  A
N178        C179   1.345       .  A
C179        C180   1.383       .  A
C179        H182   1.082       .  S
C180        C892   1.471       .  S
C180        C181   1.384       .  A
C181        H183   1.082       .  S
N184        N185   1.323       .  A
N184        C188   1.344       .  A
N185        C186   1.350       .  A
C186        C187   1.389       .  A
C186        H189   1.082   1_655  S
C187       C1249   1.475       .  S
C187        C188   1.381       .  A
C188        H190   1.082       .  S
N191        N192   1.322       .  A
N191        C195   1.349       .  A
N191       Cu199   2.083       .  S
N192        C193   1.338       .  A
N192       Cu198   2.060       .  S
C193        C194   1.382       .  A
C193        H196   1.081       .  S
C194       C1492   1.481       .  S
C194        C195   1.388       .  A
C195        H197   1.082       .  S
Cu198       N201   2.059       .  S
Cu199       N209   2.083       .  S
Cu200       N202   2.064       .  S
Cu200       N208   2.065       .  S
N201        N202   1.319       .  A
N201        C205   1.344       .  A
N202        C203   1.344       .  A
C203        C204   1.384       .  A
C203        H206   1.082       .  S
C204        C813   1.468       .  S
C204        C205   1.382       .  A
C205        H207   1.082       .  S
N208        N209   1.321       .  A
N208        C212   1.338       .  A
N209        C210   1.349       .  A
C210        C211   1.392       .  A
C210        H213   1.082       .  S
C211       C1237   1.490       .  S
C211        C212   1.386       .  A
C212        H214   1.079       .  S
O215       Cu223   1.927       .  S
O215        C225   1.269       .  A
O216       Cu223   1.977   1_554  S
O216        C226   1.271       .  A
O217       Cu223   1.922       .  S
O217        C227   1.253       .  A
O218       Cu223   1.979   1_554  S
O218        C228   1.256   1_455  A
O219       Cu224   2.653       .  S
O219        C228   1.293   1_455  A
O220       Cu224   2.428   1_556  S
O220        C227   1.275       .  A
O221       Cu224   2.447       .  S
O221        C226   1.328       .  A
O222       Cu224   2.646   1_556  S
O222        C225   1.302       .  A
Cu223      Cu224   3.453   1_556  S
C225       C1252   1.497       .  S
C226       C1240   1.482       .  S
C227       C1225   1.468       .  S
C228       C1264   1.493       .  S
N229        N230   1.322       .  A
N229        C233   1.345       .  A
N229       Cu237   2.060       .  S
N230        C231   1.338       .  A
N230       Cu236   2.060       .  S
C231        C232   1.382       .  A
C231        H234   1.082       .  S
C232       C1213   1.472       .  S
C232        C233   1.383       .  A
C233        H235   1.081       .  S
Cu236       N239   2.058       .  S
Cu237       N247   2.060       .  S
Cu238       N240   2.058       .  S
Cu238       N246   2.059       .  S
N239        N240   1.319       .  A
N239        C243   1.343       .  A
N240        C241   1.342       .  A
C241        C242   1.381       .  A
C241        H244   1.082       .  S
C242        C868   1.463       .  S
C242        C243   1.381       .  A
C243        H245   1.082       .  S
N246        N247   1.322       .  A
N246        C250   1.339       .  A
N247        C248   1.345       .  A
C248        C249   1.380       .  A
C248        H251   1.082       .  S
C249       C1273   1.464       .  S
C249        C250   1.378       .  A
C250        H252   1.082       .  S
N253        N254   1.322       .  A
N253        C257   1.351       .  A
N253       Cu261   2.095       .  S
N254        C255   1.337       .  A
N254       Cu260   2.053       .  S
C255        C256   1.381       .  A
C255        H258   1.080       .  S
C256       C1228   1.485       .  S
C256        C257   1.392       .  A
C257        H259   1.082       .  S
Cu260       N263   2.052       .  S
Cu261       N271   2.095       .  S
Cu262       N264   2.053       .  S
Cu262       N270   2.054       .  S
N263        N264   1.318       .  A
N263        C267   1.343       .  A
N264        C265   1.343       .  A
C265        C266   1.382       .  A
C265        H268   1.082       .  S
C266        C820   1.462       .  S
C266        C267   1.381       .  A
C267        H269   1.082       .  S
N270        N271   1.324       .  A
N270        C274   1.338       .  A
N271        C272   1.351       .  A
C272        C273   1.387       .  A
C272        H275   1.082       .  S
C273       C1201   1.470       .  S
C273        C274   1.374       .  A
C274        H276   1.082       .  S
O277       Cu285   2.684   1_556  S
O277        C287   1.279       .  A
O278       Cu285   2.420   1_556  S
O278        C288   1.329       .  A
O279       Cu285   2.445   1_556  S
O279        C289   1.282       .  A
O280       Cu285   2.598   1_556  S
O280        C290   1.307       .  A
O281       Cu286   1.959       .  S
O281        C290   1.257       .  A
O282       Cu286   1.894       .  S
O282        C289   1.255       .  A
O283       Cu286   2.002       .  S
O283        C288   1.272       .  A
O284       Cu286   1.950       .  S
O284        C287   1.266       .  A
Cu285      Cu286   3.447   1_554  S
C287       C1216   1.454       .  S
C288       C1204   1.483       .  S
C289       C1180   1.485       .  S
C290       C1189   1.482       .  S
N291        N292   1.319       .  A
N291        C295   1.349       .  A
N291       Cu299   2.089       .  S
N292        C293   1.337       .  A
N292       Cu298   2.054       .  S
C293        C294   1.388       .  A
C293        H296   1.079       .  S
C294       C1357   1.498       .  S
C294        C295   1.398       .  A
C295        H297   1.079       .  S
Cu298       N301   2.053       .  S
Cu299       N309   2.090       .  S
Cu300       N302   2.067       .  S
Cu300       N308   2.068       .  S
N301        N302   1.319       .  A
N301        C305   1.342       .  A
N302        C303   1.345       .  A
C303        C304   1.384       .  A
C303        H306   1.082       .  S
C304        C765   1.466       .  S
C304        C305   1.380       .  A
C305        H307   1.082       .  S
N308        N309   1.325       .  A
N308        C312   1.342       .  A
N309        C310   1.348       .  A
C310        C311   1.386       .  A
C310        H313   1.082       .  S
C311       C1165   1.473       .  S
C311        C312   1.378       .  A
C312        H314   1.082       .  S
N315        N316   1.323       .  A
N315        C319   1.347       .  A
N315       Cu323   2.076       .  S
N316        C317   1.341       .  A
N316       Cu322   2.067       .  S
C317        C318   1.380       .  A
C317        H320   1.082       .  S
C318       C1192   1.473       .  S
C318        C319   1.384       .  A
C319        H321   1.082       .  S
Cu322       N325   2.066       .  S
Cu323       N333   2.076       .  S
Cu324       N326   2.069       .  S
Cu324       N332   2.070       .  S
N325        N326   1.320       .  A
N325        C329   1.344       .  A
N326        C327   1.346       .  A
C327        C328   1.383       .  A
C327        H330   1.082       .  S
C328        C909   1.469       .  S
C328        C329   1.382       .  A
C329        H331   1.082       .  S
N332        N333   1.324       .  A
N332        C336   1.340       .  A
N333        C334   1.348       .  A
C334        C335   1.382       .  A
C334        H337   1.082       .  S
C335       C1153   1.469       .  S
C335        C336   1.379       .  A
C336        H338   1.082       .  S
N339        N340   1.323       .  A
N339        C343   1.347       .  A
N339       Cu347   2.075       .  S
N340        C341   1.341       .  A
N340       Cu346   2.070       .  S
C341        C342   1.383       .  A
C341        H344   1.082       .  S
C342       C1141   1.480       .  S
C342        C343   1.386       .  A
C343        H345   1.082       .  S
Cu346       N349   2.069       .  S
Cu347       N357   2.075       .  S
Cu348       N350   2.059       .  S
Cu348       N356   2.060       .  S
N349        N350   1.320       .  A
N349        C353   1.345       .  A
N350        C351   1.343       .  A
C351        C352   1.381       .  A
C351        H354   1.082       .  S
C352        C789   1.466       .  S
C352        C353   1.383       .  A
C353        H355   1.082       .  S
N356        N357   1.322       .  A
N356        C360   1.339       .  A
N357        C358   1.347       .  A
C358        C359   1.387       .  A
C358        H361   1.081       .  S
C359       C1444   1.479       .  S
C359        C360   1.382       .  A
C360        H362   1.082       .  S
O363       Cu371   2.438       .  S
O363        C373   1.332       .  A
O364       Cu371   2.722   1_566  S
O364        C374   1.281       .  A
O365       Cu371   2.554       .  S
O365        C375   1.310   1_545  A
O366       Cu371   2.436   1_556  S
O366        C376   1.282       .  A
O367       Cu372   1.907   1_545  S
O367        C376   1.257       .  A
O368       Cu372   1.968   1_554  S
O368        C375   1.259       .  A
O369       Cu372   1.960       .  S
O369        C374   1.267       .  A
O370       Cu372   2.003   1_544  S
O370        C373   1.269       .  A
Cu371      Cu372   3.440   1_544  S
C373       C1168   1.480       .  S
C374       C1156   1.477       .  S
C375       C1144   1.467       .  S
C376       C1132   1.485       .  S
N377        N378   1.324       .  A
N377        C381   1.350       .  A
N377       Cu385   2.093       .  S
N378        C379   1.341       .  A
N378       Cu384   2.062       .  S
C379        C380   1.377       .  A
C379        H382   1.082       .  S
C380       C1117   1.471       .  S
C380        C381   1.386       .  A
C381        H383   1.082       .  S
Cu384       N387   2.062       .  S
Cu385       N395   2.093       .  S
Cu386       N388   2.058       .  S
Cu386       N394   2.060       .  S
N387        N388   1.320       .  A
N387        C391   1.343       .  A
N388        C389   1.343       .  A
C389        C390   1.381       .  A
C389        H392   1.082       .  S
C390        C806   1.464       .  S
C390        C391   1.382       .  A
C391        H393   1.082       .  S
N394        N395   1.324       .  A
N394        C398   1.341       .  A
N395        C396   1.350       .  A
C396        C397   1.386       .  A
C396        H399   1.082       .  S
C397       C1333   1.471       .  S
C397        C398   1.377       .  A
C398        H400   1.082       .  S
N401        N402   1.322       .  A
N401        C405   1.347       .  A
N401       Cu409   2.075       .  S
N402        C403   1.340       .  A
N402       Cu408   2.062       .  S
C403        C404   1.379       .  A
C403        H406   1.082       .  S
C404       C1177   1.466       .  S
C404        C405   1.383       .  A
C405        H407   1.082       .  S
Cu408       N411   2.061       .  S
Cu409       N419   2.075       .  S
Cu410       N412   2.069       .  S
Cu410       N418   2.071       .  S
N411        N412   1.320       .  A
N411        C415   1.343       .  A
N412        C413   1.346       .  A
C413        C414   1.384       .  A
C413        H416   1.082       .  S
C414        C844   1.468       .  S
C414        C415   1.381       .  A
C415        H417   1.082       .  S
N418        N419   1.324       .  A
N418        C422   1.341       .  A
N419        C420   1.347       .  A
C420        C421   1.381       .  A
C420        H423   1.082       .  S
C421       C1105   1.468       .  S
C421        C422   1.379       .  A
C422        H424   1.082       .  S
N425        N426   1.320       .  A
N425        C429   1.352       .  A
N425       Cu433   2.101       .  S
N426        C427   1.336       .  A
N426       Cu432   2.054       .  S
C427        C428   1.386       .  A
C427        H430   1.080       .  S
C428       C1093   1.499       .  S
C428        C429   1.399       .  A
C429        H431   1.079       .  S
Cu432       N435   2.053       .  S
Cu433       N443   2.102       .  S
Cu434       N436   2.054       .  S
Cu434       N442   2.055       .  S
N435        N436   1.318       .  A
N435        C439   1.342       .  A
N436        C437   1.342       .  A
C437        C438   1.381       .  A
C437        H440   1.082       .  S
C438        C830   1.462       .  S
C438        C439   1.381       .  A
C439        H441   1.082       .  S
N442        N443   1.324       .  A
N442        C446   1.340       .  A
N443        C444   1.351       .  A
C444        C445   1.387       .  A
C444        H447   1.082       .  S
C445       C1456   1.469       .  S
C445        C446   1.374       .  A
C446        H448   1.082       .  S
O449       Cu457   1.984   1_544  S
O449        C459   1.262       .  A
O450       Cu457   1.923       .  S
O450        C460   1.258       .  A
O451       Cu457   1.994   1_554  S
O451        C461   1.267       .  A
O452       Cu457   1.954   1_545  S
O452        C462   1.267       .  A
O453       Cu458   2.713   1_546  S
O453        C462   1.283       .  A
O454       Cu458   2.450       .  S
O454        C461   1.332       .  A
O455       Cu458   2.430   1_556  S
O455        C460   1.280       .  A
O456       Cu458   2.583       .  S
O456        C459   1.314   1_565  A
Cu457      Cu458   3.425   1_556  S
C459       C1081   1.492       .  S
C460       C1096   1.473       .  S
C461       C1120   1.484       .  S
C462       C1108   1.477       .  S
N463        N464   1.324       .  A
N463        C467   1.347       .  A
N463       Cu471   2.077       .  S
N464        C465   1.342       .  A
N464       Cu470   2.069       .  S
C465        C466   1.378       .  A
C465        H468   1.082       .  S
C466       C1432   1.465       .  S
C466        C467   1.382       .  A
C467        H469   1.082       .  S
Cu470       N473   2.068       .  S
Cu471       N481   2.076       .  S
Cu472       N474   2.073       .  S
Cu472       N480   2.073       .  S
N473        N474   1.321       .  A
N473        C477   1.345       .  A
N474        C475   1.346       .  A
C475        C476   1.384       .  A
C475        H478   1.082       .  S
C476        C902   1.471       .  S
C476        C477   1.383       .  A
C477        H479   1.082       .  S
N480        N481   1.321       .  A
N480        C484   1.339       .  A
N481        C482   1.348       .  A
C482        C483   1.391       .  A
C482        H485   1.080       .  S
C483       C1069   1.493       .  S
C483        C484   1.389       .  A
C484        H486   1.081       .  S
N487        N488   1.324       .  A
N487        C491   1.356       .  A
N487       Cu495   2.119       .  S
N488        C489   1.338       .  A
N488       Cu494   2.066       .  S
C489        C490   1.382       .  A
C489        H492   1.080       .  S
C490       C1372   1.495       .  S
C490        C491   1.396       .  A
C491        H493   1.082   1_655  S
Cu494       N497   2.063       .  S
Cu495       N505   2.119       .  S
Cu496       N498   2.037       .  S
Cu496       N504   2.038       .  S
N497        N498   1.317       .  A
N497        C501   1.345       .  A
N498        C499   1.340       .  A
C499        C500   1.378       .  A
C499        H502   1.082       .  S
C500        C878   1.462       .  S
C500        C501   1.385       .  A
C501        H503   1.082       .  S
N504        N505   1.323       .  A
N504        C508   1.338       .  A
N505        C506   1.354       .  A
C506        C507   1.395       .  A
C506        H509   1.082   1_655  S
C507       C1057   1.480       .  S
C507        C508   1.373       .  A
C508        H510   1.082       .  S
N511        N512   1.319       .  A
N511        C515   1.346       .  A
N511       Cu519   2.081       .  S
N512        C513   1.337       .  A
N512       Cu518   2.056       .  S
C513        C514   1.388       .  A
C513        H516   1.080       .  S
C514       C1468   1.496       .  S
C514        C515   1.396       .  A
C515        H517   1.078       .  S
Cu518       N521   2.055       .  S
Cu519       N529   2.081       .  S
Cu520       N522   2.064       .  S
Cu520       N528   2.065       .  S
N521        N522   1.319       .  A
N521        C525   1.343       .  A
N522        C523   1.343       .  A
C523        C524   1.383       .  A
C523        H526   1.082       .  S
C524        C837   1.465       .  S
C524        C525   1.381       .  A
C525        H527   1.082       .  S
N528        N529   1.323       .  A
N528        C532   1.340       .  A
N529        C530   1.349       .  A
C530        C531   1.384       .  A
C530        H533   1.082       .  S
C531       C1045   1.471       .  S
C531        C532   1.379       .  A
C532        H534   1.082       .  S
O535       Cu543   2.429       .  S
O535        C545   1.275       .  A
O536       Cu543   2.672   1_545  S
O536        C546   1.297       .  A
O537       Cu543   2.655   1_545  S
O537        C547   1.301       .  A
O538       Cu543   2.448   1_545  S
O538        C548   1.324   1_445  A
O539       Cu544   1.973       .  S
O539        C548   1.272   1_455  A
O540       Cu544   1.932   1_545  S
O540        C547   1.270       .  A
O541       Cu544   1.956   1_545  S
O541        C546   1.254       .  A
O542       Cu544   1.908       .  S
O542        C545   1.253       .  A
Cu543      Cu544   3.442       .  S
C545       C1048   1.483       .  S
C546       C1060   1.491       .  S
C547       C1036   1.494       .  S
C548       C1072   1.486       .  S
N549        N550   1.323       .  A
N549        C553   1.348       .  A
N549       Cu557   2.082       .  S
N550        C551   1.341       .  A
N550       Cu556   2.063       .  S
C551        C552   1.378       .  A
C551        H554   1.082       .  S
C552       C1129   1.467       .  S
C552        C553   1.384       .  A
C553        H555   1.082       .  S
Cu556       N559   2.062       .  S
Cu557       N567   2.082       .  S
Cu558       N560   2.070       .  S
Cu558       N566   2.072       .  S
N559        N560   1.320       .  A
N559        C563   1.343       .  A
N560        C561   1.345       .  A
C561        C562   1.384       .  A
C561        H564   1.082       .  S
C562        C885   1.468       .  S
C562        C563   1.381       .  A
C563        H565   1.082       .  S
N566        N567   1.323       .  A
N566        C570   1.341       .  A
N567        C568   1.349       .  A
C568        C569   1.385       .  A
C568        H571   1.082       .  S
C569       C1021   1.477       .  S
C569        C570   1.382       .  A
C570        H572   1.082       .  S
N573        N574   1.324       .  A
N573        C577   1.352       .  A
N573       Cu581   2.106       .  S
N574        C575   1.340       .  A
N574       Cu580   2.053       .  S
C575        C576   1.374       .  A
C575        H578   1.082       .  S
C576       C1009   1.472       .  S
C576        C577   1.389       .  A
C577        H579   1.082       .  S
Cu580       N583   2.052       .  S
Cu581       N591   2.106       .  S
Cu582       N584   2.071       .  S
Cu582       N590   2.073       .  S
N583        N584   1.319       .  A
N583        C587   1.342       .  A
N584        C585   1.346       .  A
C585        C586   1.385       .  A
C585        H588   1.082       .  S
C586        C926   1.467       .  S
C586        C587   1.381       .  A
C587        H589   1.082       .  S
N590        N591   1.323       .  A
N590        C594   1.339       .  A
N591        C592   1.353       .  A
C592        C593   1.396       .  A
C592        H595   1.081       .  S
C593       C1084   1.498       .  S
C593        C594   1.386       .  A
C594        H596   1.081       .  S
N597        N598   1.322       .  A
N597        C601   1.351       .  A
N597       Cu605   2.101       .  S
N598        C599   1.340       .  A
N598       Cu604   2.068       .  S
C599        C600   1.386       .  A
C599        H602   1.081       .  S
C600        C997   1.497       .  S
C600        C601   1.396       .  A
C601        H603   1.080       .  S
Cu604       N607   2.066       .  S
Cu605       N615   2.102       .  S
Cu606       N608   2.065       .  S
Cu606       N614   2.066       .  S
N607        N608   1.320       .  A
N607        C611   1.345       .  A
N608        C609   1.344       .  A
C609        C610   1.383       .  A
C609        H612   1.082       .  S
C610        C854   1.468       .  S
C610        C611   1.383       .  A
C611        H613   1.082       .  S
N614        N615   1.324       .  A
N614        C618   1.342       .  A
N615        C616   1.351       .  A
C616        C617   1.389       .  A
C616        H619   1.082       .  S
C617       C1033   1.473       .  S
C617        C618   1.379       .  A
C618        H620   1.082       .  S
O621       Cu629   2.748   1_545  S
O621        C631   1.288       .  A
O622       Cu629   2.450   1_545  S
O622        C632   1.334       .  A
O623       Cu629   2.429   1_545  S
O623        C633   1.276       .  A
O624       Cu629   2.546   1_545  S
O624        C634   1.310       .  A
O625       Cu630   1.993       .  S
O625        C634   1.262       .  A
O626       Cu630   1.931       .  S
O626        C633   1.256       .  A
O627       Cu630   1.997       .  S
O627        C632   1.268       .  A
O628       Cu630   1.948       .  S
O628        C631   1.267       .  A
Cu629      Cu630   3.429   1_565  S
C631       C1024   1.492       .  S
C632       C1012   1.488       .  S
C633        C985   1.467       .  S
C634       C1000   1.480       .  S
N635        N636   1.322       .  A
N635        C639   1.348       .  A
N635       Cu643   2.071       .  S
N636        C637   1.339       .  A
N636       Cu642   2.061       .  S
C637        C638   1.378       .  A
C637        H640   1.082       .  S
C638        C973   1.466       .  S
C638        C639   1.382       .  A
C639        H641   1.082       .  S
Cu642       N645   2.060       .  S
Cu643       N653   2.072       .  S
Cu644       N646   2.076       .  S
Cu644       N652   2.078       .  S
N645        N646   1.321       .  A
N645        C649   1.344       .  A
N646        C647   1.346       .  A
C647        C648   1.384       .  A
C647        H650   1.082       .  S
C648        C796   1.468       .  S
C648        C649   1.380       .  A
C649        H651   1.082       .  S
N652        N653   1.324       .  A
N652        C656   1.344       .  A
N653        C654   1.346       .  A
C654        C655   1.379       .  A
C654        H657   1.082       .  S
C655       C1420   1.467       .  S
C655        C656   1.380       .  A
C656        H658   1.082       .  S
N659        N660   1.322       .  A
N659        C663   1.354       .  A
N659       Cu667   2.110       .  S
N660        C661   1.339       .  A
N660       Cu666   2.058       .  S
C661        C662   1.382       .  A
C661        H664   1.081       .  S
C662        C961   1.492       .  S
C662        C663   1.396       .  A
C663        H665   1.081   1_655  S
Cu666       N669   2.058       .  S
Cu667       N677   2.111       .  S
Cu668       N670   2.070       .  S
Cu668       N676   2.071       .  S
N669        N670   1.319       .  A
N669        C673   1.343       .  A
N670        C671   1.346       .  A
C671        C672   1.385       .  A
C671        H674   1.082       .  S
C672        C782   1.468       .  S
C672        C673   1.381       .  A
C673        H675   1.082       .  S
N676        N677   1.325       .  A
N676        C680   1.343       .  A
N677        C678   1.351       .  A
C678        C679   1.391       .  A
C678        H681   1.082   1_655  S
C679       C1381   1.484   1_655  S
C679        C680   1.380       .  A
C680        H682   1.082       .  S
N683        N684   1.324       .  A
N683        C687   1.351       .  A
N683       Cu691   2.105       .  S
N684        C685   1.341       .  A
N684       Cu690   2.062       .  S
C685        C686   1.379       .  A
C685        H688   1.082       .  S
C686        C988   1.482       .  S
C686        C687   1.391       .  A
C687        H689   1.082       .  S
Cu690       N693   2.061       .  S
Cu691       N701   2.105       .  S
Cu692       N694   2.054       .  S
Cu692       N700   2.054       .  S
N693        N694   1.318       .  A
N693        C697   1.343       .  A
N694        C695   1.343       .  A
C695        C696   1.381       .  A
C695        H698   1.082       .  S
C696        C748   1.464       .  S
C696        C697   1.383       .  A
C697        H699   1.082       .  S
N700        N701   1.323       .  A
N700        C704   1.338       .  A
N701        C702   1.353       .  A
C702        C703   1.394       .  A
C702        H705   1.082       .  S
C703        C952   1.484       .  S
C703        C704   1.378       .  A
C704        H706   1.082       .  S
N707        N708   1.323       .  A
N707        C711   1.353       .  A
N707       Cu715   2.100       .  S
N708        C709   1.338       .  A
N708       Cu714   2.067       .  S
C709        C710   1.382       .  A
C709        H712   1.081       .  S
C710       C1480   1.488       .  S
C710        C711   1.392       .  A
C711        H713   1.082       .  S
Cu714       N717   2.065       .  S
Cu715       N725   2.101       .  S
Cu716       N718   2.058       .  S
Cu716       N724   2.059       .  S
N717        N718   1.318       .  A
N717        C721   1.346       .  A
N718        C719   1.343       .  A
C719        C720   1.382       .  A
C719        H722   1.082       .  S
C720        C933   1.468       .  S
C720        C721   1.384       .  A
C721        H723   1.082       .  S
N724        N725   1.324       .  A
N724        C728   1.339       .  A
N725        C726   1.351       .  A
C726        C727   1.391       .  A
C726        H729   1.082       .  S
C727        C937   1.481       .  S
C727        C728   1.378       .  A
C728        H730   1.082       .  S
O731       Cu739   1.907       .  S
O731        C741   1.252       .  A
O732       Cu739   1.958   1_545  S
O732        C742   1.253   1_455  A
O733       Cu739   2.009   1_545  S
O733        C743   1.275       .  A
O734       Cu739   1.948       .  S
O734        C744   1.273       .  A
O735       Cu740   2.616   1_565  S
O735        C744   1.297       .  A
O736       Cu740   2.431       .  S
O736        C743   1.322       .  A
O737       Cu740   2.670       .  S
O737        C742   1.294   1_455  A
O738       Cu740   2.433   1_565  S
O738        C741   1.274       .  A
Cu739      Cu740   3.459   1_565  S
C741        C976   1.472       .  S
C742        C949   1.481       .  S
C743        C940   1.486       .  S
C744        C964   1.476       .  S
N745        N746   1.322       .  A
N745        C749   1.343       .  A
N745       Cu753   2.062       .  S
N746        C747   1.344       .  A
N746       Cu752   2.068       .  S
C747        C748   1.382       .  A
C747        H750   1.082       .  S
C748        C749   1.380       .  A
C749        H751   1.082       .  S
Cu752       N755   2.068       .  S
Cu753       N763   2.062       .  S
Cu754       N756   2.070       .  S
Cu754       N762   2.069       .  S
N755        N756   1.322       .  A
N755        C759   1.344       .  A
N756        C757   1.344       .  A
C757        C758   1.382       .  A
C757        H760   1.082       .  S
C758        C759   1.381       .  A
C759        H761   1.082       .  S
N762        N763   1.322       .  A
N762        C766   1.344       .  A
N763        C764   1.344       .  A
C764        C765   1.380       .  A
C764        H767   1.082       .  S
C765        C766   1.382       .  A
C766        H768   1.082       .  S
N769        N770   1.322       .  A
N769        C773   1.343       .  A
N769       Cu777   2.062       .  S
N770        C771   1.343       .  A
N770       Cu776   2.069       .  S
C771        C772   1.382       .  A
C771        H774   1.082       .  S
C772        C773   1.380       .  A
C773        H775   1.082       .  S
Cu776       N779   2.069       .  S
Cu777       N787   2.062       .  S
Cu778       N780   2.073       .  S
Cu778       N786   2.073       .  S
N779        N780   1.322       .  A
N779        C783   1.345       .  A
N780        C781   1.344       .  A
C781        C782   1.383       .  A
C781        H784   1.082       .  S
C782        C783   1.382       .  A
C783        H785   1.082       .  S
N786        N787   1.322       .  A
N786        C790   1.345       .  A
N787        C788   1.343       .  A
C788        C789   1.380       .  A
C788        H791   1.082       .  S
C789        C790   1.383       .  A
C790        H792   1.082       .  S
N793        N794   1.322       .  A
N793        C797   1.345       .  A
N793       Cu801   2.078       .  S
N794        C795   1.344       .  A
N794       Cu800   2.064       .  S
C795        C796   1.380       .  A
C795        H798   1.082       .  S
C796        C797   1.384       .  A
C797        H799   1.082       .  S
Cu800       N803   2.063       .  S
Cu801       N811   2.078       .  S
Cu802       N804   2.065       .  S
Cu802       N810   2.065       .  S
N803        N804   1.321       .  A
N803        C807   1.343       .  A
N804        C805   1.344       .  A
C805        C806   1.381       .  A
C805        H808   1.082       .  S
C806        C807   1.381       .  A
C807        H809   1.082       .  S
N810        N811   1.323       .  A
N810        C814   1.343       .  A
N811        C812   1.346       .  A
C812        C813   1.383       .  A
C812        H815   1.082       .  S
C813        C814   1.380       .  A
C814        H816   1.082       .  S
N817        N818   1.322       .  A
N817        C821   1.344       .  A
N817       Cu825   2.069       .  S
N818        C819   1.342       .  A
N818       Cu824   2.060       .  S
C819        C820   1.379       .  A
C819        H822   1.082       .  S
C820        C821   1.381       .  A
C821        H823   1.082       .  S
Cu824       N827   2.060       .  S
Cu825       N835   2.069       .  S
Cu826       N828   2.059       .  S
Cu826       N834   2.059       .  S
N827        N828   1.321       .  A
N827        C831   1.343       .  A
N828        C829   1.342       .  A
C829        C830   1.380       .  A
C829        H832   1.082       .  S
C830        C831   1.381       .  A
C831        H833   1.082       .  S
N834        N835   1.322       .  A
N834        C838   1.342       .  A
N835        C836   1.344       .  A
C836        C837   1.382       .  A
C836        H839   1.082       .  S
C837        C838   1.379       .  A
C838        H840   1.082       .  S
N841        N842   1.322       .  A
N841        C845   1.343       .  A
N841       Cu849   2.068       .  S
N842        C843   1.346       .  A
N842       Cu848   2.073       .  S
C843        C844   1.382       .  A
C843        H846   1.082       .  S
C844        C845   1.381       .  A
C845        H847   1.082       .  S
Cu848       N851   2.073       .  S
Cu849       N859   2.067       .  S
Cu850       N852   2.069       .  S
Cu850       N858   2.069       .  S
N851        N852   1.322       .  A
N851        C855   1.345       .  A
N852        C853   1.344       .  A
C853        C854   1.382       .  A
C853        H856   1.082       .  S
C854        C855   1.382       .  A
C855        H857   1.082       .  S
N858        N859   1.322       .  A
N858        C862   1.344       .  A
N859        C860   1.344       .  A
C860        C861   1.382       .  A
C860        H863   1.082       .  S
C861        C862   1.382       .  A
C862        H864   1.082       .  S
N865        N866   1.322       .  A
N865        C869   1.344       .  A
N865       Cu873   2.071       .  S
N866        C867   1.342       .  A
N866       Cu872   2.057       .  S
C867        C868   1.379       .  A
C867        H870   1.082       .  S
C868        C869   1.382       .  A
C869        H871   1.082       .  S
Cu872       N875   2.057       .  S
Cu873       N883   2.071       .  S
Cu874       N876   2.067       .  S
Cu874       N882   2.068       .  S
N875        N876   1.321       .  A
N875        C879   1.344       .  A
N876        C877   1.342       .  A
C877        C878   1.381       .  A
C877        H880   1.082       .  S
C878        C879   1.379       .  A
C879        H881   1.082       .  S
N882        N883   1.322       .  A
N882        C886   1.345       .  A
N883        C884   1.344       .  A
C884        C885   1.382       .  A
C884        H887   1.082       .  S
C885        C886   1.382       .  A
C886        H888   1.082       .  S
N889        N890   1.322       .  A
N889        C893   1.344       .  A
N889       Cu897   2.071       .  S
N890        C891   1.346       .  A
N890       Cu896   2.077       .  S
C891        C892   1.384       .  A
C891        H894   1.082       .  S
C892        C893   1.382       .  A
C893        H895   1.082       .  S
Cu896       N899   2.077       .  S
Cu897       N907   2.070       .  S
Cu898       N900   2.076       .  S
Cu898       N906   2.076       .  S
N899        N900   1.323       .  A
N899        C903   1.346       .  A
N900        C901   1.345       .  A
C901        C902   1.383       .  A
C901        H904   1.082       .  S
C902        C903   1.383       .  A
C903        H905   1.082       .  S
N906        N907   1.322       .  A
N906        C910   1.346       .  A
N907        C908   1.344       .  A
C908        C909   1.381       .  A
C908        H911   1.082       .  S
C909        C910   1.383       .  A
C910        H912   1.082       .  S
N913        N914   1.322       .  A
N913        C917   1.344       .  A
N913       Cu921   2.072       .  S
N914        C915   1.345       .  A
N914       Cu920   2.068       .  S
C915        C916   1.382       .  A
C915        H918   1.082       .  S
C916        C917   1.382       .  A
C917        H919   1.082       .  S
Cu920       N923   2.067       .  S
Cu921       N931   2.072       .  S
Cu922       N924   2.072       .  S
Cu922       N930   2.072       .  S
N923        N924   1.322       .  A
N923        C927   1.345       .  A
N924        C925   1.344       .  A
C925        C926   1.383       .  A
C925        H928   1.082       .  S
C926        C927   1.381       .  A
C927        H929   1.082       .  S
N930        N931   1.322       .  A
N930        C934   1.344       .  A
N931        C932   1.346       .  A
C932        C933   1.382       .  A
C932        H935   1.082       .  S
C933        C934   1.382       .  A
C934        H936   1.082       .  S
C937        C938   1.404       .  A
C937        C942   1.407       .  A
C938        C939   1.398       .  A
C938        H943   1.083       .  S
C939        C940   1.411       .  A
C939        O944   1.372       .  S
C940        C941   1.408       .  A
C941        C942   1.403       .  A
C941        H945   1.083       .  S
C942        O946   1.371       .  S
O944        H948   0.992       .  S
O946        H947   0.992       .  S
C949        C950   1.408       .  A
C949        C954   1.403       .  A
C950        C951   1.405       .  A
C950        H955   1.083   1_545  S
C951        C952   1.407       .  A
C951        O956   1.373   1_545  S
C952        C953   1.407       .  A
C953        C954   1.399       .  A
C953        H957   1.083       .  S
C954        O958   1.367       .  S
O956        H960   0.991       .  S
O958        H959   0.992       .  S
C961        C962   1.407       .  A
C961        C966   1.413       .  A
C962        C963   1.395       .  A
C962        H967   1.082       .  S
C963        C964   1.405   1_655  A
C963        O968   1.373       .  S
C964        C965   1.405       .  A
C965        C966   1.409   1_455  A
C965        H969   1.083       .  S
C966        O970   1.370   1_655  S
O968        H972   0.992       .  S
O970        H971   0.992   1_455  S
C973        C974   1.404       .  A
C973        C978   1.403       .  A
C974        C975   1.405       .  A
C974        H979   1.083       .  S
C975        C976   1.408       .  A
C975        O980   1.371       .  S
C976        C977   1.404       .  A
C977        C978   1.390       .  A
C977        H981   1.084       .  S
C978        O982   1.372       .  S
O980        H984   0.991       .  S
O982        H983   0.992       .  S
C985        C986   1.402       .  A
C985        C990   1.402       .  A
C986        C987   1.401       .  A
C986        H991   1.082       .  S
C987        C988   1.409       .  A
C987        O992   1.371       .  S
C988        C989   1.408       .  A
C989        C990   1.401       .  A
C989        H993   1.083       .  S
C990        O994   1.372       .  S
O992        H996   0.992       .  S
O994        H995   0.992       .  S
C997        C998   1.408       .  A
C997       C1002   1.415       .  A
C998        C999   1.397       .  A
C998       H1003   1.082       .  S
C999       C1000   1.406       .  A
C999       O1004   1.373       .  S
C1000      C1001   1.403       .  A
C1001      C1002   1.408       .  A
C1001      H1005   1.081       .  S
C1002      O1006   1.370       .  S
O1004      H1008   0.992       .  S
O1006      H1007   0.992       .  S
C1009      C1010   1.400       .  A
C1009      C1014   1.404       .  A
C1010      C1011   1.399       .  A
C1010      H1015   1.084       .  S
C1011      C1012   1.415       .  A
C1011      O1016   1.372       .  S
C1012      C1013   1.407       .  A
C1013      C1014   1.403       .  A
C1013      H1017   1.081       .  S
C1014      O1018   1.371       .  S
O1016      H1020   0.992       .  S
O1018      H1019   0.991   1_545  S
C1021      C1022   1.404       .  A
C1021      C1026   1.405       .  A
C1022      C1023   1.407       .  A
C1022      H1027   1.084       .  S
C1023      C1024   1.413       .  A
C1023      O1028   1.369   1_545  S
C1024      C1025   1.408       .  A
C1025      C1026   1.394       .  A
C1025      H1029   1.083       .  S
C1026      O1030   1.373       .  S
O1028      H1032   0.991       .  S
O1030      H1031   0.992       .  S
C1033      C1034   1.393       .  A
C1033      C1038   1.408       .  A
C1034      C1035   1.393       .  A
C1034      H1039   1.084       .  S
C1035      C1036   1.423       .  A
C1035      O1040   1.372       .  S
C1036      C1037   1.408       .  A
C1037      C1038   1.409       .  A
C1037      H1041   1.083       .  S
C1038      O1042   1.370       .  S
O1040      H1044   0.992       .  S
O1042      H1043   0.992       .  S
C1045      C1046   1.403       .  A
C1045      C1050   1.403       .  A
C1046      C1047   1.407       .  A
C1046      H1051   1.083       .  S
C1047      C1048   1.412       .  A
C1047      O1052   1.371       .  S
C1048      C1049   1.407       .  A
C1049      C1050   1.391       .  A
C1049      H1053   1.083       .  S
C1050      O1054   1.373       .  S
O1052      H1056   0.991       .  S
O1054      H1055   0.992       .  S
C1057      C1058   1.397   1_655  A
C1057      C1062   1.409   1_655  A
C1058      C1059   1.409       .  A
C1058      H1063   1.084   1_455  S
C1059      C1060   1.410       .  A
C1059      O1064   1.368       .  S
C1060      C1061   1.406       .  A
C1061      C1062   1.402       .  A
C1061      H1065   1.084       .  S
C1062      O1066   1.372   1_455  S
O1064      H1068   0.992       .  S
O1066      H1067   0.992       .  S
C1069      C1070   1.404       .  A
C1069      C1074   1.415       .  A
C1070      C1071   1.392       .  A
C1070      H1075   1.081       .  S
C1071      C1072   1.412       .  A
C1071      O1076   1.372       .  S
C1072      C1073   1.405       .  A
C1073      C1074   1.409       .  A
C1073      H1077   1.082   1_565  S
C1074      O1078   1.370       .  S
O1076      H1080   0.992       .  S
O1078      H1079   0.992   1_565  S
C1081      C1082   1.407       .  A
C1081      C1086   1.412       .  A
C1082      C1083   1.411       .  A
C1082      H1087   1.082   1_545  S
C1083      C1084   1.414       .  A
C1083      O1088   1.370       .  S
C1084      C1085   1.406       .  A
C1085      C1086   1.395       .  A
C1085      H1089   1.081       .  S
C1086      O1090   1.372       .  S
O1088      H1092   0.992   1_545  S
O1090      H1091   0.992       .  S
C1093      C1094   1.411       .  A
C1093      C1098   1.416       .  A
C1094      C1095   1.394       .  A
C1094      H1099   1.079       .  S
C1095      C1096   1.400       .  A
C1095      O1100   1.371       .  S
C1096      C1097   1.400       .  A
C1097      C1098   1.407       .  A
C1097      H1101   1.076       .  S
C1098      O1102   1.370       .  S
O1100      H1104   0.992       .  S
O1102      H1103   0.992       .  S
C1105      C1106   1.402       .  A
C1105      C1110   1.404       .  A
C1106      C1107   1.405       .  A
C1106      H1111   1.084       .  S
C1107      C1108   1.410       .  A
C1107      O1112   1.371       .  S
C1108      C1109   1.404       .  A
C1109      C1110   1.394       .  A
C1109      H1113   1.084       .  S
C1110      O1114   1.372       .  S
O1112      H1116   0.991       .  S
O1114      H1115   0.992       .  S
C1117      C1118   1.398       .  A
C1117      C1122   1.406       .  A
C1118      C1119   1.398       .  A
C1118      H1123   1.084       .  S
C1119      C1120   1.415       .  A
C1119      O1124   1.371   1_554  S
C1120      C1121   1.404       .  A
C1121      C1122   1.402       .  A
C1121      H1125   1.082       .  S
C1122      O1126   1.371       .  S
O1124      H1128   0.992       .  S
O1126      H1127   0.992       .  S
C1129      C1130   1.402       .  A
C1129      C1134   1.401       .  A
C1130      C1131   1.405       .  A
C1130      H1135   1.083       .  S
C1131      C1132   1.413       .  A
C1131      O1136   1.371       .  S
C1132      C1133   1.409       .  A
C1133      C1134   1.392       .  A
C1133      H1137   1.083       .  S
C1134      O1138   1.373       .  S
O1136      H1140   0.991       .  S
O1138      H1139   0.992       .  S
C1141      C1142   1.403       .  A
C1141      C1146   1.412       .  A
C1142      C1143   1.393       .  A
C1142      H1147   1.083       .  S
C1143      C1144   1.405       .  A
C1143      O1148   1.373       .  S
C1144      C1145   1.401   1_565  A
C1145      C1146   1.406   1_545  A
C1145      H1149   1.081       .  S
C1146      O1150   1.372   1_565  S
O1148      H1152   0.992       .  S
O1150      H1151   0.991       .  S
C1153      C1154   1.399       .  A
C1153      C1158   1.406       .  A
C1154      C1155   1.395       .  A
C1154      H1159   1.084       .  S
C1155      C1156   1.410       .  A
C1155      O1160   1.373       .  S
C1156      C1157   1.407       .  A
C1157      C1158   1.403       .  A
C1157      H1161   1.083       .  S
C1158      O1162   1.371       .  S
O1160      H1164   0.992       .  S
O1162      H1163   0.992       .  S
C1165      C1166   1.403       .  A
C1165      C1170   1.404       .  A
C1166      C1167   1.404       .  A
C1166      H1171   1.084       .  S
C1167      C1168   1.409       .  A
C1167      O1172   1.373       .  S
C1168      C1169   1.406       .  A
C1169      C1170   1.397       .  A
C1169      H1173   1.084   1_554  S
C1170      O1174   1.372       .  S
O1172      H1176   0.992       .  S
O1174      H1175   0.992       .  S
C1177      C1178   1.402       .  A
C1177      C1182   1.400       .  A
C1178      C1179   1.407       .  A
C1178      H1183   1.083   1_556  S
C1179      C1180   1.412       .  A
C1179      O1184   1.372   1_556  S
C1180      C1181   1.410       .  A
C1181      C1182   1.389       .  A
C1181      H1185   1.083       .  S
C1182      O1186   1.373       .  S
O1184      H1188   0.991       .  S
O1186      H1187   0.992       .  S
C1189      C1190   1.404       .  A
C1189      C1194   1.412       .  A
C1190      C1191   1.400       .  A
C1190      H1195   1.077       .  S
C1191      C1192   1.405       .  A
C1191      O1196   1.372       .  S
C1192      C1193   1.401       .  A
C1193      C1194   1.397       .  A
C1193      H1197   1.084       .  S
C1194      O1198   1.372       .  S
O1196      H1200   0.992   1_556  S
O1198      H1199   0.992       .  S
C1201      C1202   1.399       .  A
C1201      C1206   1.405       .  A
C1202      C1203   1.407       .  A
C1202      H1207   1.084       .  S
C1203      C1204   1.415       .  A
C1203      O1208   1.374   1_556  S
C1204      C1205   1.405       .  A
C1205      C1206   1.394       .  A
C1205      H1209   1.083       .  S
C1206      O1210   1.372       .  S
O1208      H1212   0.992       .  S
O1210      H1211   0.992       .  S
C1213      C1214   1.403       .  A
C1213      C1218   1.412       .  A
C1214      C1215   1.390       .  A
C1214      H1219   1.083       .  S
C1215      C1216   1.402       .  A
C1215      O1220   1.373       .  S
C1216      C1217   1.398       .  A
C1217      C1218   1.400       .  A
C1217      H1221   1.083       .  S
C1218      O1222   1.371       .  S
O1220      H1224   0.992       .  S
O1222      H1223   0.992       .  S
C1225      C1226   1.396       .  A
C1225      C1230   1.405       .  A
C1226      C1227   1.396       .  A
C1226      H1231   1.081       .  S
C1227      C1228   1.414       .  A
C1227      O1232   1.373       .  S
C1228      C1229   1.406       .  A
C1229      C1230   1.403       .  A
C1229      H1233   1.083       .  S
C1230      O1234   1.368   1_556  S
O1232      H1236   0.992       .  S
O1234      H1235   0.992       .  S
C1237      C1238   1.408       .  A
C1237      C1242   1.413       .  A
C1238      C1239   1.404       .  A
C1238      H1243   1.082       .  S
C1239      C1240   1.408       .  A
C1239      O1244   1.368       .  S
C1240      C1241   1.402       .  A
C1241      C1242   1.394       .  A
C1241      H1245   1.084       .  S
C1242      O1246   1.371       .  S
O1244      H1248   0.992       .  S
O1246      H1247   0.992       .  S
C1249      C1250   1.392   1_655  A
C1249      C1254   1.408       .  A
C1250      C1251   1.393       .  A
C1250      H1255   1.084       .  S
C1251      C1252   1.425       .  A
C1251      O1256   1.373       .  S
C1252      C1253   1.408   1_455  A
C1253      C1254   1.411       .  A
C1253      H1257   1.083       .  S
C1254      O1258   1.370       .  S
O1256      H1260   0.992       .  S
O1258      H1259   0.992       .  S
C1261      C1262   1.405       .  A
C1261      C1266   1.406       .  A
C1262      C1263   1.402       .  A
C1262      H1267   1.084       .  S
C1263      C1264   1.411       .  A
C1263      O1268   1.371       .  S
C1264      C1265   1.408       .  A
C1265      C1266   1.408       .  A
C1265      H1269   1.076       .  S
C1266      O1270   1.371       .  S
O1268      H1272   0.992       .  S
O1270      H1271   0.992       .  S
C1273      C1274   1.400       .  A
C1273      C1278   1.404       .  A
C1274      C1275   1.403       .  A
C1274      H1279   1.084       .  S
C1275      C1276   1.411       .  A
C1275      O1280   1.374       .  S
C1276      C1277   1.402       .  A
C1277      C1278   1.393       .  A
C1277      H1281   1.084       .  S
C1278      O1282   1.373       .  S
O1280      H1284   0.991       .  S
O1282      H1283   0.992       .  S
C1285      C1286   1.401   1_655  A
C1285      C1290   1.412       .  A
C1286      C1287   1.402       .  A
C1286      H1291   1.083       .  S
C1287      C1288   1.414       .  A
C1287      O1292   1.373       .  S
C1288      C1289   1.400   1_455  A
C1289      C1290   1.404       .  A
C1289      H1293   1.080       .  S
C1290      O1294   1.372       .  S
O1292      H1296   0.992       .  S
O1294      H1295   0.992       .  S
C1297      C1298   1.404       .  A
C1297      C1302   1.403       .  A
C1298      C1299   1.413       .  A
C1298      H1303   1.084       .  S
C1299      C1300   1.412       .  A
C1299      O1304   1.372       .  S
C1300      C1301   1.408       .  A
C1301      C1302   1.391       .  A
C1301      H1305   1.083       .  S
C1302      O1306   1.373       .  S
O1304      H1308   0.991       .  S
O1306      H1307   0.992       .  S
C1309      C1310   1.394       .  A
C1309      C1314   1.408       .  A
C1310      C1311   1.393       .  A
C1310      H1315   1.084       .  S
C1311      C1312   1.420       .  A
C1311      O1316   1.373       .  S
C1312      C1313   1.406       .  A
C1313      C1314   1.408       .  A
C1313      H1317   1.084       .  S
C1314      O1318   1.371       .  S
O1316      H1320   0.992       .  S
O1318      H1319   0.992       .  S
C1321      C1322   1.407       .  A
C1321      C1326   1.414       .  A
C1322      C1323   1.396       .  A
C1322      H1327   1.084       .  S
C1323      C1324   1.405       .  A
C1323      O1328   1.373       .  S
C1324      C1325   1.404       .  A
C1325      C1326   1.408       .  A
C1325      H1329   1.083   1_554  S
C1326      O1330   1.371   1_554  S
O1328      H1332   0.992       .  S
O1330      H1331   0.991       .  S
C1333      C1334   1.396       .  A
C1333      C1338   1.406       .  A
C1334      C1335   1.403       .  A
C1334      H1339   1.084       .  S
C1335      C1336   1.414       .  A
C1335      O1340   1.371   1_554  S
C1336      C1337   1.405       .  A
C1337      C1338   1.401       .  A
C1337      H1341   1.084       .  S
C1338      O1342   1.371       .  S
O1340      H1344   0.992       .  S
O1342      H1343   0.992       .  S
C1345      C1346   1.408       .  A
C1345      C1350   1.418       .  A
C1346      C1347   1.410       .  A
C1346      H1351   1.083       .  S
C1347      C1348   1.408       .  A
C1347      O1352   1.371   1_554  S
C1348      C1349   1.399       .  A
C1349      C1350   1.402       .  A
C1349      H1353   1.084       .  S
C1350      O1354   1.372       .  S
O1352      H1356   0.992   1_556  S
O1354      H1355   0.992       .  S
C1357      C1358   1.412       .  A
C1357      C1362   1.417       .  A
C1358      C1359   1.394       .  A
C1358      H1363   1.079       .  S
C1359      C1360   1.400       .  A
C1359      O1364   1.373       .  S
C1360      C1361   1.398       .  A
C1361      C1362   1.404       .  A
C1361      H1365   1.078       .  S
C1362      O1366   1.370       .  S
O1364      H1368   0.992       .  S
O1366      H1367   0.992       .  S
C1369      C1370   1.400   1_455  A
C1369      C1374   1.409       .  A
C1370      C1371   1.397       .  A
C1370      H1375   1.083       .  S
C1371      C1372   1.413       .  A
C1371      O1376   1.373       .  S
C1372      C1373   1.408   1_655  A
C1373      C1374   1.413       .  A
C1373      H1377   1.083       .  S
C1374      O1378   1.368       .  S
O1376      H1380   0.992       .  S
O1378      H1379   0.991       .  S
C1381      C1382   1.402   1_455  A
C1381      C1386   1.413       .  A
C1382      C1383   1.401   1_655  A
C1382      H1387   1.083       .  S
C1383      C1384   1.410       .  A
C1383      O1388   1.373   1_455  S
C1384      C1385   1.400       .  A
C1385      C1386   1.406       .  A
C1385      H1389   1.084       .  S
C1386      O1390   1.372       .  S
O1388      H1392   0.991   1_655  S
O1390      H1391   0.992   1_455  S
C1393      C1394   1.401   1_655  A
C1393      C1398   1.407       .  A
C1394      C1395   1.402       .  A
C1394      H1399   1.084       .  S
C1395      C1396   1.408       .  A
C1395      O1400   1.367       .  S
C1396      C1397   1.409   1_455  A
C1397      C1398   1.406       .  A
C1397      H1401   1.084       .  S
C1398      O1402   1.371       .  S
O1400      H1404   0.990       .  S
O1402      H1403   0.992       .  S
C1405      C1406   1.402       .  A
C1405      C1410   1.405   1_455  A
C1406      C1407   1.409       .  A
C1406      H1411   1.084       .  S
C1407      C1408   1.413       .  A
C1407      O1412   1.371       .  S
C1408      C1409   1.406   1_455  A
C1409      C1410   1.398       .  A
C1409      H1413   1.084       .  S
C1410      O1414   1.372       .  S
O1412      H1416   0.991       .  S
O1414      H1415   0.992       .  S
C1417      C1418   1.400       .  A
C1417      C1422   1.406       .  A
C1418      C1419   1.397       .  A
C1418      H1423   1.079       .  S
C1419      C1420   1.404       .  A
C1419      O1424   1.372       .  S
C1420      C1421   1.402       .  A
C1421      C1422   1.402       .  A
C1421      H1425   1.084       .  S
C1422      O1426   1.371       .  S
O1424      H1428   0.991   1_565  S
O1426      H1427   0.992       .  S
C1429      C1430   1.407       .  A
C1429      C1434   1.408       .  A
C1430      C1431   1.395       .  A
C1430      H1435   1.084       .  S
C1431      C1432   1.402       .  A
C1431      O1436   1.372       .  S
C1432      C1433   1.401       .  A
C1433      C1434   1.402       .  A
C1433      H1437   1.084       .  S
C1434      O1438   1.369   1_565  S
O1436      H1440   0.992       .  S
O1438      H1439   0.991       .  S
C1441      C1442   1.400       .  A
C1441      C1446   1.403       .  A
C1442      C1443   1.403       .  A
C1442      H1447   1.080       .  S
C1443      C1444   1.412       .  A
C1443      O1448   1.370       .  S
C1444      C1445   1.404       .  A
C1445      C1446   1.393       .  A
C1445      H1449   1.083       .  S
C1446      O1450   1.373       .  S
O1448      H1452   0.992       .  S
O1450      H1451   0.992       .  S
C1453      C1454   1.408       .  A
C1453      C1458   1.415       .  A
C1454      C1455   1.402       .  A
C1454      H1459   1.082       .  S
C1455      C1456   1.404       .  A
C1455      O1460   1.371   1_565  S
C1456      C1457   1.399       .  A
C1457      C1458   1.398       .  A
C1457      H1461   1.084       .  S
C1458      O1462   1.371       .  S
O1460      H1464   0.992       .  S
O1462      H1463   0.992       .  S
C1465      C1466   1.397       .  A
C1465      C1470   1.399       .  A
C1466      C1467   1.401       .  A
C1466      H1471   1.080       .  S
C1467      C1468   1.417       .  A
C1467      O1472   1.370       .  S
C1468      C1469   1.412       .  A
C1469      C1470   1.395       .  A
C1469      H1473   1.079       .  S
C1470      O1474   1.372       .  S
O1472      H1476   0.992       .  S
O1474      H1475   0.992       .  S
C1477      C1478   1.397       .  A
C1477      C1482   1.408       .  A
C1478      C1479   1.391       .  A
C1478      H1483   1.084       .  S
C1479      C1480   1.412       .  A
C1479      O1484   1.371       .  S
C1480      C1481   1.410       .  A
C1481      C1482   1.411       .  A
C1481      H1485   1.083       .  S
C1482      O1486   1.372       .  S
O1484      H1488   0.992       .  S
O1486      H1487   0.991       .  S
C1489      C1490   1.397       .  A
C1489      C1494   1.404       .  A
C1490      C1491   1.394       .  A
C1490      H1495   1.085       .  S
C1491      C1492   1.411       .  A
C1491      O1496   1.373       .  S
C1492      C1493   1.408       .  A
C1493      C1494   1.404       .  A
C1493      H1497   1.083       .  S
C1494      O1498   1.370       .  S
O1496      H1500   0.992       .  S
O1498      H1499   0.992       .  S
C1501      C1502   1.398       .  A
C1501      C1506   1.403       .  A
C1502      C1503   1.402       .  A
C1502      H1507   1.084       .  S
C1503      C1504   1.412       .  A
C1503      O1508   1.369       .  S
C1504      C1505   1.407       .  A
C1505      C1506   1.396       .  A
C1505      H1509   1.083       .  S
C1506      O1510   1.372       .  S
O1508      H1512   0.991       .  S
O1510      H1511   0.992       .  S
