geometry optimzed in LAMMPS
_audit_creation_date              2020-11-30 
_audit_creation_method            'lammps2cif' 
_symmetry_space_group_name_H-M    'P1' 
_symmetry_Int_Tables_number       1 
_symmetry_cell_setting            triclinic 
loop_ 
_symmetry_equiv_pos_as_xyz 
  x,y,z 
_cell_length_a                    37.322455746130345 
_cell_length_b                    36.84471551246686 
_cell_length_c                    48.46063023168559 
_cell_angle_alpha                 90.23250849538837 
_cell_angle_beta                  90.44799144974782 
_cell_angle_gamma                 121.36118343688901 
loop_ 
_atom_site_label 
_atom_site_type_symbol 
_atom_site_fract_x 
_atom_site_fract_y 
_atom_site_fract_z 
_atom_site_charge 
C1          C  0.33216807  0.16725354  0.00234514    -0.03700
C2          C  0.33489507  0.16495837  0.12644753    -0.03700
C3          C  0.16002344  0.34362964  0.37979997    -0.03700
C4          C  0.16955536  0.34801819  0.25668927    -0.03700
N5          N  0.47021877  0.06548697  0.47731676    -0.07330
N6          N  0.46326530  0.09680143  0.48041070    -0.59450
N7          N  0.47816429  0.49043130  0.00994836    -0.07010
N8          N  0.47010891  0.47451003  0.03512010    -0.61580
N9          N  0.01352887  0.02759385  0.00993241    -0.06610
N10         N  0.03005916  0.03751419  0.03513059    -0.59430
N11         N  0.43479587  0.02864883  0.47762436    -0.06290
N12         N  0.40283676  0.03406420  0.48105046    -0.61930
C13         C  0.42118390  0.07678048  0.48293137     0.94850
C14         C  0.50295046  0.50385529  0.05059374     0.94620
N15         N  0.44335662  0.40014272  0.44486588    -0.07520
N16         N  0.43235418  0.35992490  0.44431620    -0.60030
N17         N  0.39155114  0.44899252  0.43831331    -0.05640
N18         N  0.35210915  0.43883375  0.43899266    -0.61280
N19         N  0.40041358  0.43914802  0.41413185    -0.07550
N20         N  0.36665881  0.42185779  0.39790741    -0.60300
N21         N  0.43419408  0.41006988  0.46882513    -0.05280
N22         N  0.41642615  0.37654406  0.48495739    -0.61370
Mn23       Mn  0.43424940  0.46909727  0.47411344     1.18440
C24         C  0.41560065  0.34560136  0.46936243     0.96930
C25         C  0.33705856  0.42237044  0.41372792     0.97590
N26         N  0.09044186  0.07317149  0.46844159    -0.07570
N27         N  0.12322947  0.08998071  0.48531117    -0.63870
N28         N  0.05511380  0.10026623  0.41340148    -0.06370
N29         N  0.06735737  0.13166839  0.39579218    -0.64550
N30         N  0.04553057  0.11042983  0.43713836    -0.07070
N31         N  0.05085353  0.14875579  0.43603964    -0.64140
N32         N  0.09986187  0.06282040  0.44478108    -0.05970
N33         N  0.13899919  0.07196312  0.44516777    -0.64830
Mn34       Mn  0.03057224  0.06993514  0.47367885     1.10660
C35         C  0.15317763  0.08850412  0.47064661     0.98150
C36         C  0.06391365  0.16148489  0.41000154     0.98230
N37         N  0.47975494  0.48328554  0.37206564    -0.07080
N38         N  0.46490596  0.47298431  0.34643645    -0.62450
N39         N  0.05738986  0.48199257  0.40712424    -0.06400
N40         N  0.08979980  0.47673528  0.40704502    -0.59180
N41         N  0.02198008  0.44496365  0.40717082    -0.07710
N42         N  0.02966635  0.41372178  0.40726153    -0.62020
N43         N  0.01535145  0.02019155  0.37236610    -0.06700
N44         N  0.02518657  0.03558297  0.34709304    -0.59210
Mn45       Mn  0.46080491  0.44128586  0.40886651     1.20190
Mn46       Mn  0.05758917  0.04189335  0.40889417     1.10090
Cl47       Cl  0.49570232  0.00553304  0.44132513    -0.87180
C48         C  0.49326632  0.00619751  0.33108076     0.95160
C49         C  0.07211772  0.43404056  0.40755617     0.94950
N50         N  0.40503133  0.43958648  0.21647569    -0.07330
N51         N  0.37226859  0.42449483  0.23280591    -0.59450
N52         N  0.43704772  0.40864664  0.16204739    -0.07010
N53         N  0.42076420  0.37522683  0.14528558    -0.61580
N54         N  0.44690402  0.39912186  0.18600207    -0.06610
N55         N  0.43840986  0.35965827  0.18582943    -0.59430
N56         N  0.39602782  0.44939130  0.19240779    -0.06290
N57         N  0.35731902  0.44134222  0.19185577    -0.61930
C58         C  0.34278295  0.42594231  0.21711264     0.94850
C59         C  0.42269307  0.34531621  0.16031254     0.94620
N60         N  0.01638343  0.02650374  0.12233381    -0.07520
N61         N  0.03183542  0.03666822  0.09711755    -0.60030
N62         N  0.44004862  0.02981444  0.15596734    -0.05640
N63         N  0.40822034  0.03598370  0.15520956    -0.61280
N64         N  0.47586741  0.06642193  0.15712473    -0.07550
N65         N  0.46908530  0.09825458  0.15728975    -0.60300
N66         N  0.48065549  0.48973257  0.12185205    -0.05280
N67         N  0.47124750  0.47431913  0.09637370    -0.61370
Mn68       Mn  0.43797146  0.46888709  0.15743219     1.18440
C69         C  0.50365534  0.50355838  0.08116055     0.96930
C70         C  0.42671765  0.07875020  0.15648007     0.97590
N71         N  0.02318190  0.44192523  0.22665340    -0.07570
N72         N  0.02924793  0.40973114  0.22855141    -0.63870
N73         N  0.01912424  0.01934493  0.25999359    -0.06370
N74         N  0.02773252  0.03490761  0.28550171    -0.64550
N75         N  0.48289368  0.48296743  0.25929096    -0.07070
N76         N  0.46643551  0.47325285  0.28426034    -0.64140
N77         N  0.05918518  0.47823314  0.22677584    -0.05970
N78         N  0.09045160  0.47148490  0.22860445    -0.64830
Mn79       Mn  0.46392617  0.44033780  0.22261940     1.10660
C80         C  0.07150548  0.42860714  0.22957662     0.98150
C81         C  0.49439179  0.00615734  0.30041174     0.98230
N82         N  0.05535534  0.11044844  0.19578634    -0.07080
N83         N  0.06549211  0.15048507  0.19605876    -0.62450
N84         N  0.10459583  0.05808757  0.18817709    -0.06400
N85         N  0.14317463  0.06532946  0.18765167    -0.59180
N86         N  0.09504022  0.06845569  0.16443964    -0.07710
N87         N  0.12710663  0.08311025  0.14747768    -0.62020
N88         N  0.06495946  0.10034603  0.21957648    -0.06700
N89         N  0.08212746  0.13363578  0.23641902    -0.59210
Mn90       Mn  0.03613278  0.06861369  0.15938207     1.20190
Mn91       Mn  0.06262082  0.03953991  0.22419085     1.10090
Cl92       Cl  0.50023214  0.00437454  0.19091534    -0.87180
C93         C  0.08171068  0.16455010  0.22158808     0.95160
C94         C  0.15690224  0.08056801  0.16207032     0.94950
C95         C  0.10196392  0.20970793  0.23033654    -0.07340
C96         C  0.11851839  0.24131375  0.21031466    -0.18460
C97         C  0.13844843  0.28490757  0.21686829     0.09860
C98         C  0.14616397  0.29936794  0.24537857    -0.07260
C99         C  0.12751042  0.26511674  0.26492219    -0.18500
C100        C  0.10541661  0.22207496  0.25791894     0.09890
S101        S  0.14787729  0.31563019  0.18603526    -0.33460
S102        S  0.08032274  0.18456033  0.28553389    -0.33470
H103        H  0.04301284  0.15815024  0.27055157     0.27900
H104        H  0.12822211  0.33727648  0.19426974     0.27900
H105        H  0.11478144  0.23167261  0.18879439     0.18490
H106        H  0.12808448  0.26989372  0.28678769     0.18500
C107        C  0.14548519  0.37056579  0.24661806    -0.07340
C108        C  0.10180382  0.34501666  0.24031606    -0.18460
C109        C  0.07730645  0.36223863  0.23285551     0.09860
C110        C  0.09516584  0.40664604  0.23352054    -0.07260
C111        C  0.13789291  0.43231000  0.23933049    -0.18500
C112        C  0.16339906  0.41589600  0.24502882     0.09890
S113        S  0.02388168  0.32553845  0.22216284    -0.33460
S114        S  0.21802226  0.45679594  0.24946751    -0.33470
H115        H  0.21839758  0.48635617  0.23100159     0.27900
H116        H  0.02609619  0.34932534  0.19887905     0.27900
H117        H  0.08585061  0.31076743  0.24120348     0.18490
H118        H  0.15196948  0.46647491  0.23981356     0.18500
C119        C  0.21713742  0.37575937  0.24756993    -0.07340
C120        C  0.22573721  0.38418346  0.21936371    -0.18460
C121        C  0.26583756  0.40116836  0.20847858     0.09860
C122        C  0.29976923  0.41103344  0.22638585    -0.07260
C123        C  0.29329236  0.41000757  0.25465010    -0.18500
C124        C  0.25412805  0.39845291  0.26509008     0.09890
S125        S  0.27110499  0.41098860  0.17195268    -0.33460
S126        S  0.25946573  0.42587803  0.29748469    -0.33470
H127        H  0.22057139  0.42290441  0.29683772     0.27900
H128        H  0.29893462  0.45501104  0.17562999     0.27900
H129        H  0.20252459  0.38394170  0.20626139     0.18490
H130        H  0.32009673  0.42314307  0.26862582     0.18500
C131        C  0.13453478  0.29521079  0.38861515    -0.07340
C132        C  0.09421313  0.27693735  0.40069935    -0.18460
C133        C  0.06987080  0.23364028  0.40753357     0.09860
C134        C  0.08453711  0.20630833  0.40128574    -0.07260
C135        C  0.12295923  0.22287203  0.38843639    -0.18500
C136        C  0.14855926  0.26602760  0.38283780     0.09890
S137        S  0.01958496  0.21495897  0.42316582    -0.33460
S138        S  0.19924022  0.27987001  0.36950373    -0.33470
H139        H  0.20330337  0.24900803  0.38383903     0.27900
H140        H  0.99992715  0.17362003  0.41194779     0.27900
H141        H  0.08005030  0.29560884  0.40417400     0.18490
H142        H  0.13417181  0.20172843  0.38367327     0.18500
C143        C  0.13950609  0.37023085  0.38875386    -0.07340
C144        C  0.13234823  0.39440859  0.36906379    -0.18460
C145        C  0.11027195  0.41435043  0.37480622     0.09860
C146        C  0.09560039  0.41287902  0.40147943    -0.07260
C147        C  0.10576386  0.39328706  0.42232786    -0.18500
C148        C  0.12875659  0.37353861  0.41651402     0.09890
S149        S  0.10211045  0.44156621  0.34677608    -0.33460
S150        S  0.14300177  0.35305333  0.44543656    -0.33470
H151        H  0.18457862  0.38782812  0.44562894     0.27900
H152        H  0.06092050  0.42943522  0.35386227     0.27900
H153        H  0.14380964  0.39864033  0.34835274     0.18490
H154        H  0.09641518  0.39402082  0.44333438     0.18500
C155        C  0.29238239  0.40262900  0.40617373    -0.07340
C156        C  0.28035347  0.42543760  0.38973533    -0.18460
C157        C  0.23808678  0.40989447  0.38341423     0.09860
C158        C  0.20606301  0.36826425  0.39211086    -0.07260
C159        C  0.21870850  0.34909421  0.41214143    -0.18500
C160        C  0.26105213  0.36486706  0.41845609     0.09890
S161        S  0.22883687  0.44774255  0.36671165    -0.33460
S162        S  0.27297258  0.33461228  0.44192952    -0.33470
H163        H  0.31165400  0.34552666  0.43025028     0.27900
H164        H  0.21185875  0.42336597  0.34289692     0.27900
H165        H  0.30420425  0.45647740  0.38237603     0.18490
H166        H  0.19582299  0.32023649  0.42227363     0.18500
C167        C  0.16029455  0.34012426  0.34764197    -0.07340
C168        C  0.19535250  0.34454419  0.33383346    -0.18460
C169        C  0.19392704  0.33684932  0.30559276     0.09860
C170        C  0.16715663  0.34500165  0.28882861    -0.07260
C171        C  0.13049265  0.33781697  0.30237637    -0.18500
C172        C  0.12462858  0.32867017  0.33053724     0.09890
S173        S  0.22608311  0.31587465  0.29428873    -0.33460
S174        S  0.07183156  0.30521618  0.34300419    -0.33470
H175        H  0.06709761  0.26485234  0.34500910     0.27900
H176        H  0.21305729  0.30649937  0.26672966     0.27900
H177        H  0.22325264  0.35092159  0.34485289     0.18490
H178        H  0.10402563  0.33433182  0.29098452     0.18500
C179        C  0.20098843  0.09894392  0.15264363    -0.07340
C180        C  0.21516762  0.12864225  0.13143395    -0.18460
C181        C  0.25682806  0.15022575  0.12261637     0.09860
C182        C  0.28701228  0.14150660  0.13495147    -0.07260
C183        C  0.27075459  0.10855988  0.15475161    -0.18500
C184        C  0.22936231  0.08867742  0.16422380     0.09890
S185        S  0.26599542  0.18660494  0.09465191    -0.33460
S186        S  0.21442984  0.04929102  0.19060355    -0.33470
H187        H  0.21240870  0.07558402  0.21090430     0.27900
H188        H  0.30467628  0.22074090  0.10339751     0.27900
H189        H  0.19355057  0.13627629  0.12189665     0.18490
H190        H  0.29008627  0.09774642  0.16355874     0.18500
C191        C  0.40086846  0.29997839  0.15303920    -0.07340
C192        C  0.42440127  0.28217867  0.14545032    -0.18460
C193        C  0.40522151  0.23912501  0.13806026     0.09860
C194        C  0.36012887  0.21174849  0.13879867    -0.07260
C195        C  0.33813368  0.23010743  0.15025918    -0.18500
C196        C  0.35737478  0.27346995  0.15609267     0.09890
S197        S  0.44183155  0.22351096  0.12795933    -0.33460
S198        S  0.32403996  0.29306894  0.16654176    -0.33470
H199        H  0.35302003  0.32520853  0.18448337     0.27900
H200        H  0.42431582  0.20760767  0.10183800     0.27900
H201        H  0.45827194  0.30246082  0.14455560     0.18490
H202        H  0.30497988  0.21156879  0.15405015     0.18500
C203        C  0.35820140  0.14124086  0.13619163    -0.07340
C204        C  0.37317705  0.12402636  0.11598024    -0.18460
C205        C  0.39476131  0.10380557  0.12234397     0.09860
C206        C  0.40435517  0.10083964  0.14977987    -0.07260
C207        C  0.39251949  0.11909504  0.17045400    -0.18500
C208        C  0.37016689  0.13948586  0.16429825     0.09890
S209        S  0.40967882  0.08260700  0.09393941    -0.33460
S210        S  0.36249753  0.16507158  0.19376151    -0.33470
H211        H  0.32902381  0.16836677  0.18425326     0.27900
H212        H  0.45003711  0.09589714  0.10416647     0.27900
H213        H  0.37048418  0.12720568  0.09421588     0.18490
H214        H  0.40109524  0.11773470  0.19167582     0.18500
C215        C  0.28469412  0.14701134  0.49333214    -0.07340
C216        C  0.25359741  0.13883712  0.01327886    -0.18460
C217        C  0.21094364  0.11758704  0.00696954     0.09860
C218        C  0.19761987  0.10822273  0.47930806    -0.07260
C219        C  0.22799727  0.12105963  0.45876158    -0.18500
C220        C  0.27095508  0.14094772  0.46516389     0.09890
S221        S  0.17556139  0.10269893  0.03562194    -0.33460
S222        S  0.30666130  0.15769239  0.43661070    -0.33470
H223        H  0.27690856  0.13851479  0.41511395     0.27900
H224        H  0.14818953  0.06115013  0.02560535     0.27900
H225        H  0.26155496  0.14929045  0.03441157     0.18490
H226        H  0.21799277  0.11604284  0.43735621     0.18500
C227        C  0.39338271  0.30030639  0.47641557    -0.07340
C228        C  0.40884342  0.27582667  0.46590593    -0.18460
C229        C  0.38992599  0.23243179  0.47137941     0.09860
C230        C  0.35446785  0.21261882  0.48965670    -0.07260
C231        C  0.33770529  0.23771955  0.49816326    -0.18500
C232        C  0.35629343  0.28050132  0.49177163     0.09890
S233        S  0.41546209  0.20885425  0.45333905    -0.33460
S234        S  0.33047859  0.30743076  0.50376111    -0.33470
H235        H  0.33572091  0.32908106  0.47889425     0.27900
H236        H  0.38093360  0.16857796  0.44761902     0.27900
H237        H  0.43649147  0.29100938  0.45306534     0.18490
H238        H  0.31053637  0.22430482  0.51134226     0.18500
C239        C  0.35246577  0.14054373  0.49509979    -0.07340
C240        C  0.39427678  0.15808175  0.50488781    -0.18460
C241        C  0.41668611  0.13786908  0.50202101     0.09860
C242        C  0.39820045  0.09865805  0.48804795    -0.07260
C243        C  0.35650826  0.07948797  0.47901973    -0.18500
C244        C  0.33276870  0.09852131  0.48321989     0.09890
S245        S  0.46800128  0.16339109  0.01808264    -0.33460
S246        S  0.27815135  0.06408916  0.47402332    -0.33470
H247        H  0.26249134  0.06480761  0.50003912     0.27900
H248        H  0.46181866  0.12569655  0.52986728     0.27900
H249        H  0.41030287  0.18872249  0.01501109     0.18490
H250        H  0.34177092  0.04849937  0.46908283     0.18500
C251        C  0.33428074  0.16584669  0.09411609    -0.07340
C252        C  0.35937578  0.20430443  0.07986207    -0.18460
C253        C  0.36357224  0.20651741  0.05128578     0.09860
C254        C  0.33643517  0.16993139  0.03475701    -0.07260
C255        C  0.31317076  0.13117526  0.04888774    -0.18500
C256        C  0.30968806  0.12852842  0.07742395     0.09890
S257        S  0.40868631  0.25520331  0.03878066    -0.33460
S258        S  0.27202834  0.07566756  0.08965241    -0.33290
H259        H  0.29290613  0.07498645  0.11343906     0.27900
H260        H  0.43236582  0.26797737  0.06349309     0.27900
H261        H  0.37717322  0.23404486  0.09071680     0.18490
H262        H  0.29493732  0.10209130  0.03714739     0.18500
C263        C  0.33216762  0.16724732  0.50234589    -0.03700
C264        C  0.33489478  0.16495735  0.62644828    -0.03700
C265        C  0.16002305  0.34363425  0.87979963    -0.03700
C266        C  0.16955493  0.34801835  0.75668888    -0.03700
N267        N  0.47022058  0.06549432  0.97731636    -0.07330
N268        N  0.46326794  0.09680946  0.98040955    -0.59450
N269        N  0.47816511  0.49042550  0.50994859    -0.07010
N270        N  0.47010983  0.47450499  0.53512055    -0.61580
N271        N  0.01352912  0.02758859  0.50993247    -0.06610
N272        N  0.03005911  0.03750996  0.53513070    -0.59430
N273        N  0.43479721  0.02865667  0.97762382    -0.06290
N274        N  0.40283860  0.03407299  0.98104912    -0.61930
C275        C  0.42118651  0.07678936  0.98292966     0.94850
C276        C  0.50295088  0.50385124  0.55059412     0.94620
N277        N  0.44335459  0.40014873  0.94486608    -0.07520
N278        N  0.43235185  0.35993088  0.94431661    -0.60030
N279        N  0.39155112  0.44900062  0.93831285    -0.05640
N280        N  0.35210940  0.43884278  0.93899198    -0.61280
N281        N  0.40041334  0.43915542  0.91413156    -0.07550
N282        N  0.36665868  0.42186561  0.89790703    -0.60300
N283        N  0.43419191  0.41007618  0.96882516    -0.05280
N284        N  0.41642358  0.37655055  0.98495756    -0.61370
Mn285      Mn  0.43424893  0.46910431  0.97411316     1.18440
C286        C  0.41559800  0.34560765  0.96936280     0.96930
C287        C  0.33705875  0.42237939  0.91372726     0.97590
N288        N  0.09044199  0.07317543  0.96844178    -0.07570
N289        N  0.12322960  0.08998456  0.98531136    -0.63870
N290        N  0.05511531  0.10027127  0.91340143    -0.06370
N291        N  0.06735886  0.13167329  0.89579202    -0.64550
N292        N  0.04553233  0.11043516  0.93713830    -0.07070
N293        N  0.05085530  0.14876108  0.93603947    -0.64140
N294        N  0.09986182  0.06282406  0.94478131    -0.05970
N295        N  0.13899904  0.07196647  0.94516804    -0.64830
Mn296      Mn  0.03057316  0.06994066  0.97367883     1.10660
C297        C  0.15317756  0.08850757  0.97064686     0.98150
C298        C  0.06391524  0.16148989  0.91000133     0.98230
N299        N  0.47975478  0.48329069  0.87206573    -0.07080
N300        N  0.46490578  0.47298899  0.84643659    -0.62450
N301        N  0.05738868  0.48199624  0.90712442    -0.06400
N302        N  0.08979815  0.47673822  0.90704484    -0.59180
N303        N  0.02197849  0.44496767  0.90717106    -0.07710
N304        N  0.02966407  0.41372530  0.90726141    -0.62020
N305        N  0.01535173  0.02019628  0.87236599    -0.06700
N306        N  0.02518717  0.03558692  0.84709274    -0.59210
Mn307      Mn  0.46080392  0.44129148  0.90886663     1.20190
Mn308      Mn  0.05758936  0.04189768  0.90889422     1.10090
Cl309      Cl  0.49570227  0.00553867  0.94132509    -0.87180
C310        C  0.49326657  0.00620141  0.83108065     0.95160
C311        C  0.07211544  0.43404344  0.90755579     0.94950
N312        N  0.40503121  0.43958660  0.71647620    -0.07330
N313        N  0.37226844  0.42449506  0.73280637    -0.59450
N314        N  0.43704742  0.40864593  0.66204813    -0.07010
N315        N  0.42076412  0.37522611  0.64528635    -0.61580
N316        N  0.44690354  0.39912125  0.68600291    -0.06610
N317        N  0.43840941  0.35965765  0.68583036    -0.59430
N318        N  0.39602772  0.44939109  0.69240819    -0.06290
N319        N  0.35731890  0.44134193  0.69185604    -0.61930
C320        C  0.34278281  0.42594230  0.71711295     0.94850
C321        C  0.42269288  0.34531552  0.66031340     0.94620
N322        N  0.01638311  0.02650235  0.62233394    -0.07520
N323        N  0.03183530  0.03666594  0.59711768    -0.60030
N324        N  0.44004853  0.02981372  0.65596748    -0.05640
N325        N  0.40822026  0.03598299  0.65521017    -0.61280
N326        N  0.47586734  0.06642120  0.65712468    -0.07550
N327        N  0.46908525  0.09825385  0.65729005    -0.60300
N328        N  0.48065518  0.48973116  0.62185243    -0.05280
N329        N  0.47124742  0.47431681  0.59637428    -0.61370
Mn330      Mn  0.43797127  0.46888635  0.65743258     1.18440
C331        C  0.50365537  0.50355553  0.58116097     0.96930
C332        C  0.42671760  0.07874948  0.65648078     0.97590
N333        N  0.02318160  0.44192536  0.72665406    -0.07570
N334        N  0.02924761  0.40973125  0.72855188    -0.63870
N335        N  0.01912443  0.01934595  0.75999357    -0.06370
N336        N  0.02773277  0.03490963  0.78550142    -0.64550
N337        N  0.48289384  0.48296847  0.75929127    -0.07070
N338        N  0.46643566  0.47325491  0.78426068    -0.64140
N339        N  0.05918489  0.47823325  0.72677629    -0.05970
N340        N  0.09045131  0.47148499  0.72860455    -0.64830
Mn341      Mn  0.46392597  0.44033792  0.72262004     1.10660
C342        C  0.07150516  0.42860724  0.72957674     0.98150
C343        C  0.49439200  0.00616001  0.80041167     0.98230
N344        N  0.05535553  0.11044842  0.69578603    -0.07080
N345        N  0.06549222  0.15048504  0.69605839    -0.62450
N346        N  0.10459555  0.05808700  0.68817723    -0.06400
N347        N  0.14317431  0.06532882  0.68765197    -0.59180
N348        N  0.09504001  0.06845488  0.66443967    -0.07710
N349        N  0.12710645  0.08310921  0.64747776    -0.62020
N350        N  0.06495958  0.10034615  0.71957624    -0.06700
N351        N  0.08212742  0.13363592  0.73641876    -0.59210
Mn352      Mn  0.03613269  0.06861301  0.65938195     1.20190
Mn353      Mn  0.06262075  0.03954004  0.72419093     1.10090
Cl354      Cl  0.50023198  0.00437422  0.69091558    -0.87180
C355        C  0.08171064  0.16455017  0.72158775     0.95160
C356        C  0.15690197  0.08056706  0.66207059     0.94950
C357        C  0.10196375  0.20970803  0.73033626    -0.07340
C358        C  0.11851799  0.24131382  0.71031437    -0.18460
C359        C  0.13844802  0.28490764  0.71686798     0.09860
C360        C  0.14616373  0.29936809  0.74537826    -0.07260
C361        C  0.12751053  0.26511698  0.76492193    -0.18500
C362        C  0.10541673  0.22207515  0.75791869     0.09890
S363        S  0.14787668  0.31563015  0.68603490    -0.33460
S364        S  0.08032325  0.18456056  0.78553370    -0.33470
H365        H  0.04301322  0.15815039  0.77055154     0.27900
H366        H  0.12822057  0.33727563  0.69426908     0.27900
H367        H  0.11478091  0.23167265  0.68879410     0.18490
H368        H  0.12808496  0.26989415  0.78678744     0.18500
C369        C  0.14548495  0.37056591  0.74661733    -0.07340
C370        C  0.10180354  0.34501678  0.74031548    -0.18460
C371        C  0.07730612  0.36223874  0.73285513     0.09860
C372        C  0.09516555  0.40664615  0.73352022    -0.07260
C373        C  0.13789273  0.43231012  0.73932978    -0.18500
C374        C  0.16339892  0.41589612  0.74502784     0.09890
S375        S  0.02388122  0.32553859  0.72216270    -0.33460
S376        S  0.21802228  0.45679608  0.74946580    -0.33470
H377        H  0.21839712  0.48635588  0.73099975     0.27900
H378        H  0.02609538  0.34932560  0.69887907     0.27900
H379        H  0.08585031  0.31076755  0.74120297     0.18490
H380        H  0.15196936  0.46647504  0.73981277     0.18500
C381        C  0.21713707  0.37575936  0.74756972    -0.07340
C382        C  0.22573703  0.38418299  0.71936349    -0.18460
C383        C  0.26583746  0.40116790  0.70847853     0.09860
C384        C  0.29976902  0.41103331  0.72638599    -0.07260
C385        C  0.29329194  0.41000776  0.75465020    -0.18500
C386        C  0.25412755  0.39845324  0.76508995     0.09890
S387        S  0.27110512  0.41098787  0.67195260    -0.33460
S388        S  0.25946498  0.42587933  0.79748409    -0.33470
H389        H  0.22057049  0.42290536  0.79683665     0.27900
H390        H  0.29893443  0.45501039  0.67562982     0.27900
H391        H  0.20252454  0.38394113  0.70626100     0.18490
H392        H  0.32009623  0.42314354  0.76862601     0.18500
C393        C  0.13453539  0.29521564  0.88861526    -0.07340
C394        C  0.09421339  0.27694164  0.90069900    -0.18460
C395        C  0.06987135  0.23364454  0.90753302     0.09860
C396        C  0.08453840  0.20631315  0.90128548    -0.07260
C397        C  0.12296103  0.22287738  0.88843679    -0.18500
C398        C  0.14856082  0.26603306  0.88283846     0.09890
S399        S  0.01958490  0.21496243  0.92316460    -0.33460
S400        S  0.19924261  0.27987629  0.86950548    -0.33470
H401        H  0.20330559  0.24901443  0.88384108     0.27900
H402        H  0.99992791  0.17362356  0.91194653     0.27900
H403        H  0.08004998  0.29561267  0.90417335     0.18490
H404        H  0.13417417  0.20173414  0.88367405     0.18500
C405        C  0.13950468  0.37023459  0.88875327    -0.07340
C406        C  0.13234549  0.39441112  0.86906301    -0.18460
C407        C  0.11026846  0.41435223  0.87480543     0.09860
C408        C  0.09559760  0.41288141  0.90147880    -0.07260
C409        C  0.10576221  0.39329054  0.92232731    -0.18500
C410        C  0.12875542  0.37354261  0.91651346     0.09890
S411        S  0.10210540  0.44156666  0.84677513    -0.33460
S412        S  0.14300140  0.35305820  0.94543609    -0.33470
H413        H  0.18457749  0.38783445  0.94562901     0.27900
H414        H  0.06091577  0.42943584  0.85386208     0.27900
H415        H  0.14380639  0.39864240  0.84835183     0.18490
H416        H  0.09641409  0.39402478  0.94333391     0.18500
C417        C  0.29238240  0.40263723  0.90617329    -0.07340
C418        C  0.28035265  0.42544463  0.88973433    -0.18460
C419        C  0.23808573  0.40990033  0.88341314     0.09860
C420        C  0.20606268  0.36827018  0.89211037    -0.07260
C421        C  0.21870891  0.34910151  0.91214146    -0.18500
C422        C  0.26105273  0.36487545  0.91845614     0.09890
S423        S  0.22883447  0.44774684  0.86670957    -0.33460
S424        S  0.27297418  0.33462216  0.94193024    -0.33470
H425        H  0.31165556  0.34553653  0.93025096     0.27900
H426        H  0.21185588  0.42336894  0.84289536     0.27900
H427        H  0.30420293  0.45648432  0.88237457     0.18490
H428        H  0.19582387  0.32024390  0.92227398     0.18500
C429        C  0.16029405  0.34012797  0.84764168    -0.07340
C430        C  0.19535198  0.34454734  0.83383344    -0.18460
C431        C  0.19392634  0.33685090  0.80559293     0.09860
C432        C  0.16715573  0.34500219  0.78882826    -0.07260
C433        C  0.13049153  0.33781745  0.80237573    -0.18500
C434        C  0.12462784  0.32867252  0.83053685     0.09890
S435        S  0.22608252  0.31587591  0.79428979    -0.33460
S436        S  0.07183079  0.30521840  0.84300377    -0.33470
H437        H  0.06709687  0.26485454  0.84500843     0.27900
H438        H  0.21305680  0.30649979  0.76673075     0.27900
H439        H  0.22325236  0.35092577  0.84485298     0.18490
H440        H  0.10402422  0.33433112  0.79098363     0.18500
C441        C  0.20098821  0.09894303  0.65264413    -0.07340
C442        C  0.21516742  0.12864115  0.63143434    -0.18460
C443        C  0.25682792  0.15022476  0.62261696     0.09860
C444        C  0.28701214  0.14150587  0.63495235    -0.07260
C445        C  0.27075453  0.10855951  0.65475273    -0.18500
C446        C  0.22936216  0.08867694  0.66422470     0.09890
S447        S  0.26599531  0.18660374  0.59465233    -0.33460
S448        S  0.21442965  0.04929091  0.69060471    -0.33470
H449        H  0.21240839  0.07558416  0.71090521     0.27900
H450        H  0.30467660  0.22073947  0.60339750     0.27900
H451        H  0.19355033  0.13627494  0.62189680     0.18490
H452        H  0.29008629  0.09774632  0.66356010     0.18500
C453        C  0.40086833  0.29997768  0.65303997    -0.07340
C454        C  0.42440109  0.28217797  0.64545091    -0.18460
C455        C  0.40522129  0.23912436  0.63806061     0.09860
C456        C  0.36012865  0.21174781  0.63879899    -0.07260
C457        C  0.33813346  0.23010681  0.65025945    -0.18500
C458        C  0.35737459  0.27346928  0.65609315     0.09890
S459        S  0.44183139  0.22351028  0.62795986    -0.33460
S460        S  0.32403973  0.29306826  0.66654214    -0.33470
H461        H  0.35301958  0.32520753  0.68448402     0.27900
H462        H  0.42431557  0.20760644  0.60183863     0.27900
H463        H  0.45827177  0.30246009  0.64455628     0.18490
H464        H  0.30497965  0.21156826  0.65405033     0.18500
C465        C  0.35820129  0.14124005  0.63619248    -0.07340
C466        C  0.37317697  0.12402552  0.61598110    -0.18460
C467        C  0.39476117  0.10380472  0.62234483     0.09860
C468        C  0.40435508  0.10083889  0.64978070    -0.07260
C469        C  0.39251953  0.11909442  0.67045484    -0.18500
C470        C  0.37016693  0.13948526  0.66429909     0.09890
S471        S  0.40967856  0.08260602  0.59394028    -0.33460
S472        S  0.36249781  0.16507130  0.69376225    -0.33470
H473        H  0.32902440  0.16836692  0.68425389     0.27900
H474        H  0.45003725  0.09589717  0.60416700     0.27900
H475        H  0.37048428  0.12720487  0.59421673     0.18490
H476        H  0.40109539  0.11773419  0.69167666     0.18500
C477        C  0.28469443  0.14701705  0.99333164    -0.07340
C478        C  0.25359711  0.13883274  0.51327905    -0.18460
C479        C  0.21094344  0.11758347  0.50696953     0.09860
C480        C  0.19761990  0.10822676  0.97930808    -0.07260
C481        C  0.22799714  0.12106504  0.95876141    -0.18500
C482        C  0.27095507  0.14095407  0.96516347     0.09890
S483        S  0.17556110  0.10269704  0.53562176    -0.33460
S484        S  0.30666095  0.15770076  0.93661002    -0.33470
H485        H  0.27690810  0.13852426  0.91511322     0.27900
H486        H  0.14818922  0.06114776  0.52560594     0.27900
H487        H  0.26155459  0.14928664  0.53441167     0.18490
H488        H  0.21799239  0.11604866  0.93735610     0.18500
C489        C  0.39338090  0.30031292  0.97641622    -0.07340
C490        C  0.40884176  0.27583382  0.96590580    -0.18460
C491        C  0.38992498  0.23243898  0.97137877     0.09860
C492        C  0.35446748  0.21262535  0.98965656    -0.07260
C493        C  0.33770471  0.23772548  0.99816411    -0.18500
C494        C  0.35629227  0.28050736  0.99177293     0.09890
S495        S  0.41546083  0.20886254  0.95333668    -0.33460
S496        S  0.33047768  0.30743632  0.00376383    -0.33470
H497        H  0.33571802  0.32908627  0.97889708     0.27900
H498        H  0.38093295  0.16858561  0.94761729     0.27900
H499        H  0.43648934  0.29101697  0.95306478     0.18490
H500        H  0.31053618  0.22431012  0.01134349     0.18500
C501        C  0.35246719  0.14055131  0.99509810    -0.07340
C502        C  0.39427877  0.15809058  0.00488528    -0.18460
C503        C  0.41668918  0.13787921  0.00201767     0.09860
C504        C  0.39820344  0.09866751  0.98804542    -0.07260
C505        C  0.35651090  0.07949652  0.97901773    -0.18500
C506        C  0.33277074  0.09852911  0.98321804     0.09890
S507        S  0.46799655  0.16337818  0.51808821    -0.33460
S508        S  0.27815357  0.06409647  0.97402120    -0.33470
H509        H  0.26249309  0.06481332  0.00003713     0.27900
H510        H  0.46182463  0.12571134  0.02986403     0.27900
H511        H  0.41030118  0.18871350  0.51501382     0.18490
H512        H  0.34177373  0.04850771  0.96908112     0.18500
C513        C  0.33427983  0.16584448  0.59411686    -0.07340
C514        C  0.35937514  0.20430152  0.57986228    -0.18460
C515        C  0.36357185  0.20651312  0.55128602     0.09860
C516        C  0.33643447  0.16992650  0.53475776    -0.07260
C517        C  0.31316949  0.13117108  0.54888912    -0.18500
C518        C  0.30968681  0.12852552  0.57742533     0.09890
S519        S  0.40868682  0.25519781  0.53878040    -0.33460
S520        S  0.27202705  0.07566523  0.58965463    -0.33290
H521        H  0.29290597  0.07498455  0.61344082     0.27900
H522        H  0.43236590  0.26797272  0.56349300     0.27900
H523        H  0.37717295  0.23404231  0.59071664     0.18490
H524        H  0.29493574  0.10208663  0.53714921     0.18500
C525        C  0.33216808  0.66725354  0.00234514    -0.03700
C526        C  0.33489507  0.66495838  0.12644753    -0.03700
C527        C  0.16002344  0.84362964  0.37979997    -0.03700
C528        C  0.16955538  0.84801821  0.25668927    -0.03700
N529        N  0.47021877  0.56548697  0.47731676    -0.07330
N530        N  0.46326530  0.59680143  0.48041069    -0.59450
N531        N  0.47816430  0.99043131  0.00994837    -0.07010
N532        N  0.47010892  0.97451004  0.03512011    -0.61580
N533        N  0.01352888  0.52759385  0.00993241    -0.06610
N534        N  0.03005917  0.53751419  0.03513059    -0.59430
N535        N  0.43479587  0.52864883  0.47762436    -0.06290
N536        N  0.40283676  0.53406420  0.48105046    -0.61930
C537        C  0.42118390  0.57678048  0.48293137     0.94850
C538        C  0.50295047  0.00385530  0.05059375     0.94620
N539        N  0.44335663  0.90014272  0.44486588    -0.07520
N540        N  0.43235418  0.85992490  0.44431620    -0.60030
N541        N  0.39155114  0.94899252  0.43831331    -0.05640
N542        N  0.35210915  0.93883375  0.43899266    -0.61280
N543        N  0.40041358  0.93914802  0.41413185    -0.07550
N544        N  0.36665882  0.92185779  0.39790741    -0.60300
N545        N  0.43419408  0.91006988  0.46882513    -0.05280
N546        N  0.41642615  0.87654406  0.48495739    -0.61370
Mn547      Mn  0.43424940  0.96909727  0.47411344     1.18440
C548        C  0.41560064  0.84560136  0.46936243     0.96930
C549        C  0.33705857  0.92237044  0.41372792     0.97590
N550        N  0.09044186  0.57317149  0.46844159    -0.07570
N551        N  0.12322946  0.58998071  0.48531117    -0.63870
N552        N  0.05511380  0.60026623  0.41340148    -0.06370
N553        N  0.06735737  0.63166839  0.39579218    -0.64550
N554        N  0.04553057  0.61042983  0.43713836    -0.07070
N555        N  0.05085353  0.64875579  0.43603964    -0.64140
N556        N  0.09986186  0.56282040  0.44478108    -0.05970
N557        N  0.13899919  0.57196312  0.44516777    -0.64830
Mn558      Mn  0.03057223  0.56993514  0.47367885     1.10660
C559        C  0.15317763  0.58850412  0.47064661     0.98150
C560        C  0.06391364  0.66148489  0.41000154     0.98230
N561        N  0.47975495  0.98328554  0.37206564    -0.07080
N562        N  0.46490597  0.97298431  0.34643645    -0.62450
N563        N  0.05738987  0.98199257  0.40712424    -0.06400
N564        N  0.08979980  0.97673528  0.40704503    -0.59180
N565        N  0.02198008  0.94496365  0.40717082    -0.07710
N566        N  0.02966635  0.91372178  0.40726154    -0.62020
N567        N  0.01535145  0.52019156  0.37236610    -0.06700
N568        N  0.02518657  0.53558298  0.34709304    -0.59210
Mn569      Mn  0.46080492  0.94128586  0.40886651     1.20190
Mn570      Mn  0.05758917  0.54189335  0.40889417     1.10090
Cl571      Cl  0.49570232  0.50553304  0.44132512    -0.87180
C572        C  0.49326631  0.50619750  0.33108076     0.95160
C573        C  0.07211773  0.93404056  0.40755617     0.94950
N574        N  0.40503134  0.93958649  0.21647569    -0.07330
N575        N  0.37226860  0.92449484  0.23280591    -0.59450
N576        N  0.43704774  0.90864665  0.16204739    -0.07010
N577        N  0.42076422  0.87522684  0.14528558    -0.61580
N578        N  0.44690404  0.89912186  0.18600207    -0.06610
N579        N  0.43840987  0.85965828  0.18582943    -0.59430
N580        N  0.39602784  0.94939130  0.19240780    -0.06290
N581        N  0.35731904  0.94134223  0.19185577    -0.61930
C582        C  0.34278297  0.92594233  0.21711265     0.94850
C583        C  0.42269308  0.84531622  0.16031253     0.94620
N584        N  0.01638344  0.52650375  0.12233381    -0.07520
N585        N  0.03183542  0.53666822  0.09711755    -0.60030
N586        N  0.44004860  0.52981444  0.15596734    -0.05640
N587        N  0.40822033  0.53598370  0.15520955    -0.61280
N588        N  0.47586740  0.56642192  0.15712472    -0.07550
N589        N  0.46908529  0.59825457  0.15728974    -0.60300
N590        N  0.48065550  0.98973258  0.12185205    -0.05280
N591        N  0.47124751  0.97431915  0.09637370    -0.61370
Mn592      Mn  0.43797148  0.96888710  0.15743219     1.18440
C593        C  0.50365535  0.00355839  0.08116055     0.96930
C594        C  0.42671764  0.57875019  0.15648006     0.97590
N595        N  0.02318189  0.94192521  0.22665340    -0.07570
N596        N  0.02924792  0.90973113  0.22855141    -0.63870
N597        N  0.01912425  0.51934494  0.25999359    -0.06370
N598        N  0.02773253  0.53490762  0.28550171    -0.64550
N599        N  0.48289370  0.98296743  0.25929097    -0.07070
N600        N  0.46643552  0.97325285  0.28426035    -0.64140
N601        N  0.05918517  0.97823313  0.22677584    -0.05970
N602        N  0.09045159  0.97148489  0.22860445    -0.64830
Mn603      Mn  0.46392618  0.94033780  0.22261940     1.10660
C604        C  0.07150548  0.92860714  0.22957661     0.98150
C605        C  0.49439177  0.50615734  0.30041174     0.98230
N606        N  0.05535536  0.61044845  0.19578634    -0.07080
N607        N  0.06549213  0.65048508  0.19605876    -0.62450
N608        N  0.10459584  0.55808758  0.18817709    -0.06400
N609        N  0.14317464  0.56532946  0.18765166    -0.59180
N610        N  0.09504023  0.56845570  0.16443964    -0.07710
N611        N  0.12710663  0.58311026  0.14747767    -0.62020
N612        N  0.06495947  0.60034604  0.21957648    -0.06700
N613        N  0.08212748  0.63363579  0.23641902    -0.59210
Mn614      Mn  0.03613279  0.56861370  0.15938207     1.20190
Mn615      Mn  0.06262083  0.53953992  0.22419085     1.10090
Cl616      Cl  0.50023213  0.50437453  0.19091534    -0.87180
C617        C  0.08171070  0.66455011  0.22158808     0.95160
C618        C  0.15690225  0.58056801  0.16207031     0.94950
C619        C  0.10196394  0.70970794  0.23033654    -0.07340
C620        C  0.11851842  0.74131376  0.21031466    -0.18460
C621        C  0.13844847  0.78490758  0.21686829     0.09860
C622        C  0.14616399  0.79936796  0.24537857    -0.07260
C623        C  0.12751043  0.76511675  0.26492219    -0.18500
C624        C  0.10541663  0.72207497  0.25791894     0.09890
S625        S  0.14787734  0.81563022  0.18603526    -0.33460
S626        S  0.08032275  0.68456034  0.28553388    -0.33470
H627        H  0.04301285  0.65815026  0.27055156     0.27900
H628        H  0.12822212  0.83727646  0.19426973     0.27900
H629        H  0.11478148  0.73167263  0.18879439     0.18490
H630        H  0.12808449  0.76989373  0.28678769     0.18500
C631        C  0.14548520  0.87056580  0.24661806    -0.07340
C632        C  0.10180384  0.84501667  0.24031605    -0.18460
C633        C  0.07730646  0.86223863  0.23285550     0.09860
C634        C  0.09516584  0.90664604  0.23352054    -0.07260
C635        C  0.13789291  0.93231001  0.23933050    -0.18500
C636        C  0.16339906  0.91589601  0.24502883     0.09890
S637        S  0.02388170  0.82553845  0.22216281    -0.33460
S638        S  0.21802226  0.95679595  0.24946753    -0.33470
H639        H  0.21839758  0.98635619  0.23100163     0.27900
H640        H  0.02609622  0.84932535  0.19887904     0.27900
H641        H  0.08585063  0.81076744  0.24120346     0.18490
H642        H  0.15196947  0.96647491  0.23981358     0.18500
C643        C  0.21713744  0.87575939  0.24756993    -0.07340
C644        C  0.22573723  0.88418350  0.21936372    -0.18460
C645        C  0.26583758  0.90116840  0.20847858     0.09860
C646        C  0.29976925  0.91103346  0.22638585    -0.07260
C647        C  0.29329237  0.91000758  0.25465010    -0.18500
C648        C  0.25412806  0.89845292  0.26509009     0.09890
S649        S  0.27110502  0.91098867  0.17195269    -0.33460
S650        S  0.25946575  0.92587803  0.29748470    -0.33470
H651        H  0.22057141  0.92290442  0.29683774     0.27900
H652        H  0.29893467  0.95501110  0.17563002     0.27900
H653        H  0.20252461  0.88394174  0.20626140     0.18490
H654        H  0.32009674  0.92314306  0.26862583     0.18500
C655        C  0.13453478  0.79521079  0.38861515    -0.07340
C656        C  0.09421314  0.77693735  0.40069935    -0.18460
C657        C  0.06987080  0.73364028  0.40753357     0.09860
C658        C  0.08453711  0.70630833  0.40128574    -0.07260
C659        C  0.12295923  0.72287203  0.38843639    -0.18500
C660        C  0.14855926  0.76602760  0.38283779     0.09890
S661        S  0.01958497  0.71495898  0.42316583    -0.33460
S662        S  0.19924021  0.77987000  0.36950371    -0.33470
H663        H  0.20330336  0.74900802  0.38383902     0.27900
H664        H  0.99992715  0.67362004  0.41194780     0.27900
H665        H  0.08005030  0.79560884  0.40417401     0.18490
H666        H  0.13417180  0.70172843  0.38367326     0.18500
C667        C  0.13950609  0.87023085  0.38875386    -0.07340
C668        C  0.13234823  0.89440859  0.36906379    -0.18460
C669        C  0.11027195  0.91435042  0.37480623     0.09860
C670        C  0.09560039  0.91287902  0.40147943    -0.07260
C671        C  0.10576387  0.89328706  0.42232786    -0.18500
C672        C  0.12875660  0.87353861  0.41651402     0.09890
S673        S  0.10211044  0.94156621  0.34677608    -0.33460
S674        S  0.14300179  0.85305333  0.44543656    -0.33470
H675        H  0.18457864  0.88782812  0.44562893     0.27900
H676        H  0.06092049  0.92943522  0.35386228     0.27900
H677        H  0.14380964  0.89864033  0.34835274     0.18490
H678        H  0.09641520  0.89402083  0.44333438     0.18500
C679        C  0.29238240  0.90262900  0.40617373    -0.07340
C680        C  0.28035347  0.92543760  0.38973534    -0.18460
C681        C  0.23808678  0.90989447  0.38341424     0.09860
C682        C  0.20606301  0.86826425  0.39211086    -0.07260
C683        C  0.21870850  0.84909420  0.41214143    -0.18500
C684        C  0.26105214  0.86486705  0.41845608     0.09890
S685        S  0.22883687  0.94774255  0.36671166    -0.33460
S686        S  0.27297259  0.83461226  0.44192950    -0.33470
H687        H  0.31165401  0.84552665  0.43025026     0.27900
H688        H  0.21185875  0.92336598  0.34289693     0.27900
H689        H  0.30420425  0.95647740  0.38237604     0.18490
H690        H  0.19582299  0.82023648  0.42227362     0.18500
C691        C  0.16029456  0.84012427  0.34764197    -0.07340
C692        C  0.19535251  0.84454419  0.33383346    -0.18460
C693        C  0.19392705  0.83684933  0.30559276     0.09860
C694        C  0.16715665  0.84500167  0.28882861    -0.07260
C695        C  0.13049266  0.83781698  0.30237637    -0.18500
C696        C  0.12462859  0.82867017  0.33053724     0.09890
S697        S  0.22608312  0.81587465  0.29428873    -0.33460
S698        S  0.07183156  0.80521618  0.34300418    -0.33470
H699        H  0.06709762  0.76485235  0.34500910     0.27900
H700        H  0.21305731  0.80649939  0.26672966     0.27900
H701        H  0.22325265  0.85092160  0.34485289     0.18490
H702        H  0.10402565  0.83433183  0.29098451     0.18500
C703        C  0.20098844  0.59894393  0.15264363    -0.07340
C704        C  0.21516763  0.62864226  0.13143395    -0.18460
C705        C  0.25682807  0.65022576  0.12261637     0.09860
C706        C  0.28701228  0.64150661  0.13495146    -0.07260
C707        C  0.27075460  0.60855988  0.15475161    -0.18500
C708        C  0.22936232  0.58867742  0.16422379     0.09890
S709        S  0.26599543  0.68660495  0.09465191    -0.33460
S710        S  0.21442984  0.54929101  0.19060354    -0.33470
H711        H  0.21240870  0.57558401  0.21090429     0.27900
H712        H  0.30467629  0.72074090  0.10339751     0.27900
H713        H  0.19355057  0.63627631  0.12189665     0.18490
H714        H  0.29008627  0.59774642  0.16355873     0.18500
C715        C  0.40086847  0.79997840  0.15303920    -0.07340
C716        C  0.42440128  0.78217867  0.14545032    -0.18460
C717        C  0.40522152  0.73912502  0.13806026     0.09860
C718        C  0.36012888  0.71174850  0.13879867    -0.07260
C719        C  0.33813368  0.73010744  0.15025918    -0.18500
C720        C  0.35737479  0.77346996  0.15609267     0.09890
S721        S  0.44183156  0.72351096  0.12795934    -0.33460
S722        S  0.32403997  0.79306895  0.16654176    -0.33470
H723        H  0.35302005  0.82520854  0.18448336     0.27900
H724        H  0.42431583  0.70760769  0.10183799     0.27900
H725        H  0.45827195  0.80246082  0.14455560     0.18490
H726        H  0.30497989  0.71156880  0.15405014     0.18500
C727        C  0.35820141  0.64124086  0.13619163    -0.07340
C728        C  0.37317706  0.62402637  0.11598023    -0.18460
C729        C  0.39476132  0.60380558  0.12234396     0.09860
C730        C  0.40435516  0.60083964  0.14977986    -0.07260
C731        C  0.39251949  0.61909504  0.17045399    -0.18500
C732        C  0.37016689  0.63948587  0.16429825     0.09890
S733        S  0.40967883  0.58260701  0.09393941    -0.33460
S734        S  0.36249752  0.66507158  0.19376151    -0.33470
H735        H  0.32902381  0.66836677  0.18425325     0.27900
H736        H  0.45003712  0.59589715  0.10416647     0.27900
H737        H  0.37048420  0.62720570  0.09421587     0.18490
H738        H  0.40109523  0.61773469  0.19167582     0.18500
C739        C  0.28469411  0.64701134  0.49333213    -0.07340
C740        C  0.25359742  0.63883712  0.01327886    -0.18460
C741        C  0.21094365  0.61758704  0.00696953     0.09860
C742        C  0.19761986  0.60822272  0.47930806    -0.07260
C743        C  0.22799726  0.62105963  0.45876158    -0.18500
C744        C  0.27095507  0.64094772  0.46516389     0.09890
S745        S  0.17556140  0.60269893  0.03562193    -0.33460
S746        S  0.30666129  0.65769239  0.43661070    -0.33470
H747        H  0.27690855  0.63851479  0.41511394     0.27900
H748        H  0.14818953  0.56115013  0.02560535     0.27900
H749        H  0.26155496  0.64929045  0.03441156     0.18490
H750        H  0.21799276  0.61604284  0.43735621     0.18500
C751        C  0.39338270  0.80030639  0.47641557    -0.07340
C752        C  0.40884342  0.77582667  0.46590593    -0.18460
C753        C  0.38992599  0.73243179  0.47137941     0.09860
C754        C  0.35446785  0.71261881  0.48965669    -0.07260
C755        C  0.33770528  0.73771955  0.49816326    -0.18500
C756        C  0.35629342  0.78050131  0.49177163     0.09890
S757        S  0.41546209  0.70885425  0.45333905    -0.33460
S758        S  0.33047858  0.80743076  0.50376111    -0.33470
H759        H  0.33572091  0.82908106  0.47889425     0.27900
H760        H  0.38093359  0.66857796  0.44761902     0.27900
H761        H  0.43649147  0.79100938  0.45306534     0.18490
H762        H  0.31053637  0.72430481  0.51134225     0.18500
C763        C  0.35246576  0.64054373  0.49509978    -0.07340
C764        C  0.39427677  0.65808174  0.50488780    -0.18460
C765        C  0.41668611  0.63786908  0.50202101     0.09860
C766        C  0.39820045  0.59865805  0.48804795    -0.07260
C767        C  0.35650826  0.57948797  0.47901973    -0.18500
C768        C  0.33276870  0.59852131  0.48321989     0.09890
S769        S  0.46800129  0.66339109  0.01808263    -0.33460
S770        S  0.27815135  0.56408916  0.47402331    -0.33470
H771        H  0.26249134  0.56480761  0.50003912     0.27900
H772        H  0.46181865  0.62569654  0.52986728     0.27900
H773        H  0.41030288  0.68872250  0.01501108     0.18490
H774        H  0.34177092  0.54849937  0.46908283     0.18500
C775        C  0.33428074  0.66584669  0.09411608    -0.07340
C776        C  0.35937579  0.70430443  0.07986206    -0.18460
C777        C  0.36357225  0.70651741  0.05128578     0.09860
C778        C  0.33643518  0.66993139  0.03475701    -0.07260
C779        C  0.31317077  0.63117526  0.04888774    -0.18500
C780        C  0.30968806  0.62852843  0.07742395     0.09890
S781        S  0.40868633  0.75520331  0.03878066    -0.33460
S782        S  0.27202834  0.57566756  0.08965241    -0.33290
H783        H  0.29290614  0.57498645  0.11343905     0.27900
H784        H  0.43236583  0.76797737  0.06349309     0.27900
H785        H  0.37717323  0.73404487  0.09071680     0.18490
H786        H  0.29493733  0.60209131  0.03714739     0.18500
C787        C  0.33216762  0.66724731  0.50234589    -0.03700
C788        C  0.33489477  0.66495734  0.62644827    -0.03700
C789        C  0.16002304  0.84363424  0.87979965    -0.03700
C790        C  0.16955492  0.84801832  0.75668890    -0.03700
N791        N  0.47022058  0.56549432  0.97731635    -0.07330
N792        N  0.46326794  0.59680946  0.98040955    -0.59450
N793        N  0.47816510  0.99042550  0.50994859    -0.07010
N794        N  0.47010983  0.97450499  0.53512055    -0.61580
N795        N  0.01352911  0.52758858  0.50993246    -0.06610
N796        N  0.03005910  0.53750995  0.53513070    -0.59430
N797        N  0.43479721  0.52865666  0.97762381    -0.06290
N798        N  0.40283860  0.53407299  0.98104911    -0.61930
C799        C  0.42118651  0.57678936  0.98292965     0.94850
C800        C  0.50295087  0.00385123  0.55059412     0.94620
N801        N  0.44335459  0.90014874  0.94486609    -0.07520
N802        N  0.43235185  0.85993089  0.94431662    -0.60030
N803        N  0.39155111  0.94900062  0.93831287    -0.05640
N804        N  0.35210940  0.93884278  0.93899200    -0.61280
N805        N  0.40041333  0.93915543  0.91413157    -0.07550
N806        N  0.36665867  0.92186562  0.89790704    -0.60300
N807        N  0.43419192  0.91007619  0.96882517    -0.05280
N808        N  0.41642359  0.87655055  0.98495757    -0.61370
Mn809      Mn  0.43424893  0.96910431  0.97411316     1.18440
C810        C  0.41559801  0.84560766  0.96936280     0.96930
C811        C  0.33705874  0.92237939  0.91372728     0.97590
N812        N  0.09044200  0.57317543  0.96844178    -0.07570
N813        N  0.12322960  0.58998456  0.98531135    -0.63870
N814        N  0.05511531  0.60027127  0.91340143    -0.06370
N815        N  0.06735886  0.63167328  0.89579202    -0.64550
N816        N  0.04553233  0.61043515  0.93713830    -0.07070
N817        N  0.05085530  0.64876107  0.93603946    -0.64140
N818        N  0.09986183  0.56282406  0.94478130    -0.05970
N819        N  0.13899905  0.57196647  0.94516804    -0.64830
Mn820      Mn  0.03057317  0.56994065  0.97367883     1.10660
C821        C  0.15317757  0.58850757  0.97064685     0.98150
C822        C  0.06391523  0.66148988  0.91000133     0.98230
N823        N  0.47975477  0.98329069  0.87206573    -0.07080
N824        N  0.46490576  0.97298899  0.84643660    -0.62450
N825        N  0.05738867  0.98199624  0.90712443    -0.06400
N826        N  0.08979814  0.97673822  0.90704485    -0.59180
N827        N  0.02197848  0.94496767  0.90717107    -0.07710
N828        N  0.02966406  0.91372530  0.90726141    -0.62020
N829        N  0.01535174  0.52019627  0.87236598    -0.06700
N830        N  0.02518716  0.53558692  0.84709274    -0.59210
Mn831      Mn  0.46080391  0.94129149  0.90886663     1.20190
Mn832      Mn  0.05758937  0.54189768  0.90889422     1.10090
Cl833      Cl  0.49570227  0.50553866  0.94132508    -0.87180
C834        C  0.49326658  0.50620141  0.83108065     0.95160
C835        C  0.07211543  0.93404344  0.90755580     0.94950
N836        N  0.40503120  0.93958659  0.71647620    -0.07330
N837        N  0.37226843  0.92449504  0.73280637    -0.59450
N838        N  0.43704741  0.90864592  0.66204813    -0.07010
N839        N  0.42076411  0.87522610  0.64528635    -0.61580
N840        N  0.44690354  0.89912124  0.68600291    -0.06610
N841        N  0.43840940  0.85965764  0.68583036    -0.59430
N842        N  0.39602770  0.94939108  0.69240819    -0.06290
N843        N  0.35731889  0.94134191  0.69185604    -0.61930
C844        C  0.34278279  0.92594227  0.71711295     0.94850
C845        C  0.42269287  0.84531551  0.66031340     0.94620
N846        N  0.01638310  0.52650234  0.62233393    -0.07520
N847        N  0.03183529  0.53666593  0.59711767    -0.60030
N848        N  0.44004854  0.52981373  0.65596748    -0.05640
N849        N  0.40822026  0.53598300  0.65521017    -0.61280
N850        N  0.47586735  0.56642121  0.65712468    -0.07550
N851        N  0.46908525  0.59825386  0.65729004    -0.60300
N852        N  0.48065517  0.98973115  0.62185243    -0.05280
N853        N  0.47124741  0.97431681  0.59637428    -0.61370
Mn854      Mn  0.43797126  0.96888634  0.65743258     1.18440
C855        C  0.50365536  0.00355553  0.58116098     0.96930
C856        C  0.42671760  0.57874949  0.65648078     0.97590
N857        N  0.02318162  0.94192537  0.72665407    -0.07570
N858        N  0.02924763  0.90973126  0.72855189    -0.63870
N859        N  0.01912441  0.51934594  0.75999356    -0.06370
N860        N  0.02773276  0.53490963  0.78550142    -0.64550
N861        N  0.48289383  0.98296846  0.75929128    -0.07070
N862        N  0.46643565  0.97325490  0.78426068    -0.64140
N863        N  0.05918491  0.97823326  0.72677629    -0.05970
N864        N  0.09045132  0.97148499  0.72860456    -0.64830
Mn865      Mn  0.46392596  0.94033791  0.72262004     1.10660
C866        C  0.07150518  0.92860725  0.72957674     0.98150
C867        C  0.49439202  0.50616001  0.80041167     0.98230
N868        N  0.05535552  0.61044841  0.69578603    -0.07080
N869        N  0.06549221  0.65048504  0.69605839    -0.62450
N870        N  0.10459554  0.55808700  0.68817722    -0.06400
N871        N  0.14317430  0.56532881  0.68765196    -0.59180
N872        N  0.09504000  0.56845488  0.66443967    -0.07710
N873        N  0.12710644  0.58310921  0.64747776    -0.62020
N874        N  0.06495957  0.60034615  0.71957623    -0.06700
N875        N  0.08212740  0.63363591  0.73641875    -0.59210
Mn876      Mn  0.03613268  0.56861300  0.65938195     1.20190
Mn877      Mn  0.06262073  0.53954004  0.72419092     1.10090
Cl878      Cl  0.50023198  0.50437423  0.69091558    -0.87180
C879        C  0.08171062  0.66455016  0.72158775     0.95160
C880        C  0.15690196  0.58056706  0.66207059     0.94950
C881        C  0.10196373  0.70970802  0.73033626    -0.07340
C882        C  0.11851802  0.74131381  0.71031438    -0.18460
C883        C  0.13844805  0.78490763  0.71686800     0.09860
C884        C  0.14616371  0.79936807  0.74537828    -0.07260
C885        C  0.12751047  0.76511695  0.76492194    -0.18500
C886        C  0.10541666  0.72207513  0.75791869     0.09890
S887        S  0.14787679  0.81563017  0.68603493    -0.33460
S888        S  0.08032312  0.68456053  0.78553369    -0.33470
H889        H  0.04301312  0.65815036  0.77055149     0.27900
H890        H  0.12822049  0.83727550  0.69426905     0.27900
H891        H  0.11478097  0.73167266  0.68879411     0.18490
H892        H  0.12808485  0.76989412  0.78678745     0.18500
C893        C  0.14548494  0.87056589  0.74661735    -0.07340
C894        C  0.10180355  0.84501677  0.74031547    -0.18460
C895        C  0.07730613  0.86223874  0.73285511     0.09860
C896        C  0.09516556  0.90664615  0.73352023    -0.07260
C897        C  0.13789273  0.93231012  0.73932983    -0.18500
C898        C  0.16339892  0.91589611  0.74502790     0.09890
S899        S  0.02388126  0.82553861  0.72216264    -0.33460
S900        S  0.21802227  0.95679606  0.74946592    -0.33470
H901        H  0.21839714  0.98635592  0.73099990     0.27900
H902        H  0.02609545  0.84932567  0.69887903     0.27900
H903        H  0.08585032  0.81076754  0.74120293     0.18490
H904        H  0.15196935  0.96647503  0.73981285     0.18500
C905        C  0.21713706  0.87575934  0.74756974    -0.07340
C906        C  0.22573703  0.88418303  0.71936352    -0.18460
C907        C  0.26583745  0.90116794  0.70847854     0.09860
C908        C  0.29976901  0.91103329  0.72638599    -0.07260
C909        C  0.29329193  0.91000767  0.75465021    -0.18500
C910        C  0.25412754  0.89845316  0.76508997     0.09890
S911        S  0.27110512  0.91098800  0.67195263    -0.33460
S912        S  0.25946502  0.92587923  0.79748413    -0.33470
H913        H  0.22057054  0.92290529  0.79683670     0.27900
H914        H  0.29893448  0.95501050  0.67562989     0.27900
H915        H  0.20252454  0.88394121  0.70626104     0.18490
H916        H  0.32009621  0.92314340  0.76862602     0.18500
C917        C  0.13453539  0.79521564  0.88861528    -0.07340
C918        C  0.09421338  0.77694163  0.90069900    -0.18460
C919        C  0.06987133  0.73364453  0.90753301     0.09860
C920        C  0.08453839  0.70631315  0.90128549    -0.07260
C921        C  0.12296105  0.72287739  0.88843682    -0.18500
C922        C  0.14856083  0.76603307  0.88283850     0.09890
S923        S  0.01958486  0.71496240  0.92316456    -0.33460
S924        S  0.19924265  0.77987632  0.86950555    -0.33470
H925        H  0.20330562  0.74901446  0.88384117     0.27900
H926        H  0.99992790  0.67362353  0.91194649     0.27900
H927        H  0.08004996  0.79561265  0.90417334     0.18490
H928        H  0.13417420  0.70173415  0.88367409     0.18500
C929        C  0.13950467  0.87023459  0.88875329    -0.07340
C930        C  0.13234550  0.89441113  0.86906302    -0.18460
C931        C  0.11026847  0.91435224  0.87480544     0.09860
C932        C  0.09559759  0.91288141  0.90147881    -0.07260
C933        C  0.10576219  0.89329052  0.92232732    -0.18500
C934        C  0.12875539  0.87354259  0.91651348     0.09890
S935        S  0.10210544  0.94156670  0.84677515    -0.33460
S936        S  0.14300135  0.85305817  0.94543611    -0.33470
H937        H  0.18457743  0.88783443  0.94562905     0.27900
H938        H  0.06091580  0.92943587  0.85386208     0.27900
H939        H  0.14380640  0.89864241  0.84835185     0.18490
H940        H  0.09641405  0.89402475  0.94333391     0.18500
C941        C  0.29238239  0.90263724  0.90617331    -0.07340
C942        C  0.28035265  0.92544462  0.88973433    -0.18460
C943        C  0.23808573  0.90990032  0.88341314     0.09860
C944        C  0.20606267  0.86827019  0.89211039    -0.07260
C945        C  0.21870890  0.84910154  0.91214150    -0.18500
C946        C  0.26105271  0.86487548  0.91845619     0.09890
S947        S  0.22883447  0.94774683  0.86670955    -0.33460
S948        S  0.27297416  0.83462222  0.94193032    -0.33470
H949        H  0.31165553  0.84553655  0.93025103     0.27900
H950        H  0.21185586  0.92336890  0.84289536     0.27900
H951        H  0.30420293  0.95648430  0.88237455     0.18490
H952        H  0.19582385  0.82024394  0.92227403     0.18500
C953        C  0.16029403  0.84012796  0.84764170    -0.07340
C954        C  0.19535194  0.84454728  0.83383346    -0.18460
C955        C  0.19392629  0.83685084  0.80559295     0.09860
C956        C  0.16715571  0.84500216  0.78882828    -0.07260
C957        C  0.13049152  0.83781746  0.80237574    -0.18500
C958        C  0.12462783  0.82867253  0.83053686     0.09890
S959        S  0.22608244  0.81587581  0.79428981    -0.33460
S960        S  0.07183078  0.80521843  0.84300378    -0.33470
H961        H  0.06709683  0.76485456  0.84500844     0.27900
H962        H  0.21305676  0.80649974  0.76673076     0.27900
H963        H  0.22325233  0.85092571  0.84485300     0.18490
H964        H  0.10402423  0.83433115  0.79098364     0.18500
C965        C  0.20098820  0.59894303  0.65264413    -0.07340
C966        C  0.21516741  0.62864114  0.63143434    -0.18460
C967        C  0.25682791  0.65022476  0.62261695     0.09860
C968        C  0.28701213  0.64150587  0.63495235    -0.07260
C969        C  0.27075453  0.60855950  0.65475273    -0.18500
C970        C  0.22936215  0.58867694  0.66422470     0.09890
S971        S  0.26599530  0.68660373  0.59465233    -0.33460
S972        S  0.21442965  0.54929092  0.69060472    -0.33470
H973        H  0.21240838  0.57558417  0.71090521     0.27900
H974        H  0.30467658  0.72073947  0.60339750     0.27900
H975        H  0.19355032  0.63627493  0.62189680     0.18490
H976        H  0.29008628  0.59774632  0.66356011     0.18500
C977        C  0.40086832  0.79997767  0.65303997    -0.07340
C978        C  0.42440108  0.78217796  0.64545090    -0.18460
C979        C  0.40522128  0.73912435  0.63806060     0.09860
C980        C  0.36012864  0.71174781  0.63879898    -0.07260
C981        C  0.33813345  0.73010681  0.65025945    -0.18500
C982        C  0.35737459  0.77346927  0.65609315     0.09890
S983        S  0.44183138  0.72351027  0.62795986    -0.33460
S984        S  0.32403972  0.79306826  0.66654215    -0.33470
H985        H  0.35301958  0.82520752  0.68448403     0.27900
H986        H  0.42431555  0.70760643  0.60183863     0.27900
H987        H  0.45827176  0.80246008  0.64455628     0.18490
H988        H  0.30497964  0.71156826  0.65405033     0.18500
C989        C  0.35820128  0.64124004  0.63619248    -0.07340
C990        C  0.37317696  0.62402551  0.61598110    -0.18460
C991        C  0.39476116  0.60380472  0.62234483     0.09860
C992        C  0.40435508  0.60083889  0.64978070    -0.07260
C993        C  0.39251953  0.61909442  0.67045484    -0.18500
C994        C  0.37016693  0.63948526  0.66429908     0.09890
S995        S  0.40967855  0.58260602  0.59394028    -0.33460
S996        S  0.36249781  0.66507129  0.69376225    -0.33470
H997        H  0.32902439  0.66836691  0.68425389     0.27900
H998        H  0.45003725  0.59589717  0.60416700     0.27900
H999        H  0.37048426  0.62720486  0.59421673     0.18490
H1000       H  0.40109539  0.61773420  0.69167665     0.18500
C1001       C  0.28469444  0.64701706  0.99333164    -0.07340
C1002       C  0.25359711  0.63883274  0.51327905    -0.18460
C1003       C  0.21094343  0.61758346  0.50696953     0.09860
C1004       C  0.19761990  0.60822676  0.97930808    -0.07260
C1005       C  0.22799715  0.62106505  0.95876141    -0.18500
C1006       C  0.27095508  0.64095407  0.96516347     0.09890
S1007       S  0.17556110  0.60269704  0.53562175    -0.33460
S1008       S  0.30666096  0.65770077  0.93661002    -0.33470
H1009       H  0.27690811  0.63852427  0.91511322     0.27900
H1010       H  0.14818922  0.56114776  0.52560594     0.27900
H1011       H  0.26155458  0.64928663  0.53441167     0.18490
H1012       H  0.21799239  0.61604867  0.93735610     0.18500
C1013       C  0.39338091  0.80031293  0.97641623    -0.07340
C1014       C  0.40884177  0.77583383  0.96590580    -0.18460
C1015       C  0.38992498  0.73243898  0.97137877     0.09860
C1016       C  0.35446749  0.71262535  0.98965656    -0.07260
C1017       C  0.33770472  0.73772548  0.99816412    -0.18500
C1018       C  0.35629228  0.78050737  0.99177293     0.09890
S1019       S  0.41546083  0.70886255  0.95333668    -0.33460
S1020       S  0.33047769  0.80743633  0.00376384    -0.33470
H1021       H  0.33571802  0.82908628  0.97889709     0.27900
H1022       H  0.38093296  0.66858562  0.94761729     0.27900
H1023       H  0.43648934  0.79101698  0.95306479     0.18490
H1024       H  0.31053619  0.72431012  0.01134349     0.18500
C1025       C  0.35246720  0.64055132  0.99509809    -0.07340
C1026       C  0.39427878  0.65809058  0.00488528    -0.18460
C1027       C  0.41668919  0.63787921  0.00201767     0.09860
C1028       C  0.39820344  0.59866751  0.98804541    -0.07260
C1029       C  0.35651090  0.57949652  0.97901772    -0.18500
C1030       C  0.33277074  0.59852911  0.98321804     0.09890
S1031       S  0.46799655  0.66337818  0.51808822    -0.33460
S1032       S  0.27815357  0.56409647  0.97402119    -0.33470
H1033       H  0.26249309  0.56481332  0.00003713     0.27900
H1034       H  0.46182464  0.62571134  0.02986403     0.27900
H1035       H  0.41030117  0.68871349  0.51501382     0.18490
H1036       H  0.34177373  0.54850771  0.96908112     0.18500
C1037       C  0.33427982  0.66584448  0.59411686    -0.07340
C1038       C  0.35937513  0.70430151  0.57986228    -0.18460
C1039       C  0.36357184  0.70651311  0.55128601     0.09860
C1040       C  0.33643446  0.66992650  0.53475776    -0.07260
C1041       C  0.31316948  0.63117107  0.54888912    -0.18500
C1042       C  0.30968680  0.62852552  0.57742533     0.09890
S1043       S  0.40868681  0.75519780  0.53878040    -0.33460
S1044       S  0.27202704  0.57566522  0.58965463    -0.33290
H1045       H  0.29290595  0.57498454  0.61344082     0.27900
H1046       H  0.43236589  0.76797271  0.56349300     0.27900
H1047       H  0.37717294  0.73404231  0.59071663     0.18490
H1048       H  0.29493573  0.60208663  0.53714920     0.18500
C1049       C  0.83216808  0.16725355  0.00234514    -0.03700
C1050       C  0.83489507  0.16495838  0.12644753    -0.03700
C1051       C  0.66002345  0.34362964  0.37979996    -0.03700
C1052       C  0.66955537  0.34801821  0.25668925    -0.03700
N1053       N  0.97021877  0.06548697  0.47731676    -0.07330
N1054       N  0.96326530  0.09680143  0.48041070    -0.59450
N1055       N  0.97816430  0.49043130  0.00994836    -0.07010
N1056       N  0.97010891  0.47451004  0.03512010    -0.61580
N1057       N  0.51352888  0.02759386  0.00993241    -0.06610
N1058       N  0.53005917  0.03751419  0.03513059    -0.59430
N1059       N  0.93479588  0.02864883  0.47762436    -0.06290
N1060       N  0.90283676  0.03406420  0.48105046    -0.61930
C1061       C  0.92118390  0.07678048  0.48293137     0.94850
C1062       C  0.00295047  0.50385530  0.05059375     0.94620
N1063       N  0.94335662  0.40014272  0.44486587    -0.07520
N1064       N  0.93235417  0.35992490  0.44431619    -0.60030
N1065       N  0.89155114  0.44899252  0.43831331    -0.05640
N1066       N  0.85210915  0.43883375  0.43899265    -0.61280
N1067       N  0.90041358  0.43914802  0.41413185    -0.07550
N1068       N  0.86665882  0.42185779  0.39790740    -0.60300
N1069       N  0.93419408  0.41006988  0.46882513    -0.05280
N1070       N  0.91642614  0.37654406  0.48495739    -0.61370
Mn1071     Mn  0.93424940  0.46909726  0.47411343     1.18440
C1072       C  0.91560064  0.34560136  0.46936242     0.96930
C1073       C  0.83705856  0.42237045  0.41372791     0.97590
N1074       N  0.59044186  0.07317149  0.46844159    -0.07570
N1075       N  0.62322947  0.08998071  0.48531117    -0.63870
N1076       N  0.55511381  0.10026624  0.41340148    -0.06370
N1077       N  0.56735737  0.13166839  0.39579218    -0.64550
N1078       N  0.54553057  0.11042983  0.43713836    -0.07070
N1079       N  0.55085354  0.14875580  0.43603964    -0.64140
N1080       N  0.59986186  0.06282040  0.44478108    -0.05970
N1081       N  0.63899919  0.07196312  0.44516777    -0.64830
Mn1082     Mn  0.53057223  0.06993514  0.47367885     1.10660
C1083       C  0.65317763  0.08850412  0.47064662     0.98150
C1084       C  0.56391366  0.16148489  0.41000154     0.98230
N1085       N  0.97975494  0.48328554  0.37206564    -0.07080
N1086       N  0.96490597  0.47298431  0.34643645    -0.62450
N1087       N  0.55738986  0.48199257  0.40712424    -0.06400
N1088       N  0.58979980  0.47673527  0.40704502    -0.59180
N1089       N  0.52198008  0.44496365  0.40717082    -0.07710
N1090       N  0.52966635  0.41372178  0.40726153    -0.62020
N1091       N  0.51535146  0.02019155  0.37236610    -0.06700
N1092       N  0.52518657  0.03558298  0.34709304    -0.59210
Mn1093     Mn  0.96080492  0.44128586  0.40886651     1.20190
Mn1094     Mn  0.55758918  0.04189335  0.40889417     1.10090
Cl1095     Cl  0.99570232  0.00553304  0.44132513    -0.87180
C1096       C  0.99326631  0.00619750  0.33108076     0.95160
C1097       C  0.57211772  0.43404056  0.40755616     0.94950
N1098       N  0.90503134  0.43958649  0.21647570    -0.07330
N1099       N  0.87226860  0.42449484  0.23280591    -0.59450
N1100       N  0.93704773  0.40864665  0.16204739    -0.07010
N1101       N  0.92076421  0.37522684  0.14528559    -0.61580
N1102       N  0.94690404  0.39912186  0.18600207    -0.06610
N1103       N  0.93840987  0.35965828  0.18582943    -0.59430
N1104       N  0.89602784  0.44939131  0.19240780    -0.06290
N1105       N  0.85731904  0.44134224  0.19185577    -0.61930
C1106       C  0.84278297  0.42594233  0.21711265     0.94850
C1107       C  0.92269308  0.34531622  0.16031254     0.94620
N1108       N  0.51638344  0.02650375  0.12233381    -0.07520
N1109       N  0.53183542  0.03666822  0.09711755    -0.60030
N1110       N  0.94004861  0.02981443  0.15596734    -0.05640
N1111       N  0.90822033  0.03598370  0.15520955    -0.61280
N1112       N  0.97586740  0.06642192  0.15712472    -0.07550
N1113       N  0.96908529  0.09825457  0.15728975    -0.60300
N1114       N  0.98065550  0.48973258  0.12185205    -0.05280
N1115       N  0.97124751  0.47431914  0.09637370    -0.61370
Mn1116     Mn  0.93797148  0.46888710  0.15743219     1.18440
C1117       C  0.00365534  0.50355839  0.08116055     0.96930
C1118       C  0.92671764  0.07875019  0.15648007     0.97590
N1119       N  0.52318188  0.44192522  0.22665340    -0.07570
N1120       N  0.52924791  0.40973113  0.22855142    -0.63870
N1121       N  0.51912425  0.01934494  0.25999359    -0.06370
N1122       N  0.52773254  0.03490761  0.28550171    -0.64550
N1123       N  0.98289370  0.48296743  0.25929097    -0.07070
N1124       N  0.96643552  0.47325286  0.28426034    -0.64140
N1125       N  0.55918517  0.47823313  0.22677584    -0.05970
N1126       N  0.59045158  0.47148489  0.22860446    -0.64830
Mn1127     Mn  0.96392618  0.44033780  0.22261940     1.10660
C1128       C  0.57150547  0.42860713  0.22957662     0.98150
C1129       C  0.99439178  0.00615733  0.30041174     0.98230
N1130       N  0.55535535  0.11044844  0.19578635    -0.07080
N1131       N  0.56549212  0.15048507  0.19605877    -0.62450
N1132       N  0.60459584  0.05808758  0.18817709    -0.06400
N1133       N  0.64317464  0.06532946  0.18765167    -0.59180
N1134       N  0.59504023  0.06845570  0.16443964    -0.07710
N1135       N  0.62710664  0.08311026  0.14747768    -0.62020
N1136       N  0.56495947  0.10034604  0.21957648    -0.06700
N1137       N  0.58212748  0.13363579  0.23641902    -0.59210
Mn1138     Mn  0.53613279  0.06861370  0.15938207     1.20190
Mn1139     Mn  0.56262083  0.03953991  0.22419085     1.10090
Cl1140     Cl  0.00023213  0.00437453  0.19091534    -0.87180
C1141       C  0.58171069  0.16455011  0.22158808     0.95160
C1142       C  0.65690225  0.08056801  0.16207032     0.94950
C1143       C  0.60196394  0.20970794  0.23033654    -0.07340
C1144       C  0.61851835  0.24131375  0.21031466    -0.18460
C1145       C  0.63844839  0.28490757  0.21686828     0.09860
C1146       C  0.64616398  0.29936796  0.24537856    -0.07260
C1147       C  0.62751049  0.26511676  0.26492219    -0.18500
C1148       C  0.60541668  0.22207498  0.25791894     0.09890
S1149       S  0.64787716  0.31563017  0.18603525    -0.33460
S1150       S  0.58032288  0.18456035  0.28553390    -0.33470
H1151       H  0.54301294  0.15815027  0.27055162     0.27900
H1152       H  0.62822219  0.33727663  0.19426979     0.27900
H1153       H  0.61478137  0.23167260  0.18879439     0.18490
H1154       H  0.62808460  0.26989374  0.28678769     0.18500
C1155       C  0.64548519  0.37056580  0.24661805    -0.07340
C1156       C  0.60180381  0.34501666  0.24031609    -0.18460
C1157       C  0.57730643  0.36223862  0.23285554     0.09860
C1158       C  0.59516583  0.40664604  0.23352053    -0.07260
C1159       C  0.63789291  0.43231000  0.23933044    -0.18500
C1160       C  0.66339907  0.41589601  0.24502876     0.09890
S1161       S  0.52388164  0.32553843  0.22216292    -0.33460
S1162       S  0.71802228  0.45679595  0.24946738    -0.33470
H1163       H  0.71839756  0.48635612  0.23100144     0.27900
H1164       H  0.52609611  0.34932525  0.19887912     0.27900
H1165       H  0.58585061  0.31076744  0.24120354     0.18490
H1166       H  0.65196949  0.46647491  0.23981348     0.18500
C1167       C  0.71713743  0.37575939  0.24756991    -0.07340
C1168       C  0.72573722  0.38418340  0.21936370    -0.18460
C1169       C  0.76583756  0.40116830  0.20847856     0.09860
C1170       C  0.79976925  0.41103345  0.22638585    -0.07260
C1171       C  0.79329237  0.41000766  0.25465010    -0.18500
C1172       C  0.75412805  0.39845298  0.26509007     0.09890
S1173       S  0.77110499  0.41098843  0.17195266    -0.33460
S1174       S  0.75946569  0.42587813  0.29748465    -0.33470
H1175       H  0.72057133  0.42290448  0.29683767     0.27900
H1176       H  0.79893456  0.45501089  0.17562992     0.27900
H1177       H  0.70252459  0.38394160  0.20626136     0.18490
H1178       H  0.82009675  0.42314321  0.26862582     0.18500
C1179       C  0.63453478  0.29521079  0.38861514    -0.07340
C1180       C  0.59421314  0.27693735  0.40069935    -0.18460
C1181       C  0.56987081  0.23364029  0.40753358     0.09860
C1182       C  0.58453712  0.20630833  0.40128574    -0.07260
C1183       C  0.62295923  0.22287203  0.38843638    -0.18500
C1184       C  0.64855925  0.26602760  0.38283778     0.09890
S1185       S  0.51958499  0.21495898  0.42316585    -0.33460
S1186       S  0.69924020  0.27987001  0.36950368    -0.33470
H1187       H  0.70330335  0.24900801  0.38383897     0.27900
H1188       H  0.49992717  0.17362005  0.41194781     0.27900
H1189       H  0.58005031  0.29560885  0.40417401     0.18490
H1190       H  0.63417180  0.20172843  0.38367324     0.18500
C1191       C  0.63950609  0.37023085  0.38875385    -0.07340
C1192       C  0.63234822  0.39440858  0.36906378    -0.18460
C1193       C  0.61027193  0.41435041  0.37480621     0.09860
C1194       C  0.59560038  0.41287901  0.40147942    -0.07260
C1195       C  0.60576387  0.39328707  0.42232785    -0.18500
C1196       C  0.62875661  0.37353862  0.41651401     0.09890
S1197       S  0.60211041  0.44156618  0.34677607    -0.33460
S1198       S  0.64300180  0.35305336  0.44543655    -0.33470
H1199       H  0.68457866  0.38782814  0.44562891     0.27900
H1200       H  0.56092047  0.42943520  0.35386227     0.27900
H1201       H  0.64380962  0.39864031  0.34835273     0.18490
H1202       H  0.59641521  0.39402084  0.44333437     0.18500
C1203       C  0.79238240  0.40262900  0.40617372    -0.07340
C1204       C  0.78035346  0.42543761  0.38973534    -0.18460
C1205       C  0.73808677  0.40989448  0.38341424     0.09860
C1206       C  0.70606301  0.36826425  0.39211086    -0.07260
C1207       C  0.71870850  0.34909419  0.41214141    -0.18500
C1208       C  0.76105214  0.36486704  0.41845606     0.09890
S1209       S  0.72883686  0.44774256  0.36671167    -0.33460
S1210       S  0.77297260  0.33461224  0.44192947    -0.33470
H1211       H  0.81165402  0.34552665  0.43025024     0.27900
H1212       H  0.71185876  0.42336600  0.34289692     0.27900
H1213       H  0.80420424  0.45647742  0.38237605     0.18490
H1214       H  0.69582300  0.32023646  0.42227360     0.18500
C1215       C  0.66029457  0.34012428  0.34764196    -0.07340
C1216       C  0.69535254  0.34454424  0.33383345    -0.18460
C1217       C  0.69392709  0.33684939  0.30559275     0.09860
C1218       C  0.66715665  0.34500168  0.28882860    -0.07260
C1219       C  0.63049266  0.33781695  0.30237636    -0.18500
C1220       C  0.62462859  0.32867016  0.33053723     0.09890
S1221       S  0.72608320  0.31587475  0.29428872    -0.33460
S1222       S  0.57183157  0.30521615  0.34300418    -0.33470
H1223       H  0.56709764  0.26485231  0.34500908     0.27900
H1224       H  0.71305733  0.30649942  0.26672967     0.27900
H1225       H  0.72325268  0.35092165  0.34485288     0.18490
H1226       H  0.60402563  0.33433178  0.29098451     0.18500
C1227       C  0.70098844  0.09894393  0.15264363    -0.07340
C1228       C  0.71516763  0.12864226  0.13143395    -0.18460
C1229       C  0.75682807  0.15022576  0.12261637     0.09860
C1230       C  0.78701229  0.14150661  0.13495147    -0.07260
C1231       C  0.77075460  0.10855989  0.15475161    -0.18500
C1232       C  0.72936232  0.08867743  0.16422380     0.09890
S1233       S  0.76599543  0.18660494  0.09465191    -0.33460
S1234       S  0.71442985  0.04929102  0.19060355    -0.33470
H1235       H  0.71240870  0.07558402  0.21090430     0.27900
H1236       H  0.80467629  0.22074091  0.10339751     0.27900
H1237       H  0.69355058  0.13627630  0.12189665     0.18490
H1238       H  0.79008628  0.09774642  0.16355874     0.18500
C1239       C  0.90086847  0.29997840  0.15303920    -0.07340
C1240       C  0.92440128  0.28217868  0.14545032    -0.18460
C1241       C  0.90522152  0.23912502  0.13806026     0.09860
C1242       C  0.86012888  0.21174850  0.13879867    -0.07260
C1243       C  0.83813369  0.23010744  0.15025918    -0.18500
C1244       C  0.85737479  0.27346996  0.15609267     0.09890
S1245       S  0.94183156  0.22351097  0.12795934    -0.33460
S1246       S  0.82403997  0.29306895  0.16654176    -0.33470
H1247       H  0.85302004  0.32520854  0.18448337     0.27900
H1248       H  0.92431583  0.20760768  0.10183800     0.27900
H1249       H  0.95827195  0.30246083  0.14455560     0.18490
H1250       H  0.80497989  0.21156880  0.15405015     0.18500
C1251       C  0.85820141  0.14124086  0.13619163    -0.07340
C1252       C  0.87317706  0.12402637  0.11598023    -0.18460
C1253       C  0.89476131  0.10380557  0.12234397     0.09860
C1254       C  0.90435516  0.10083964  0.14977986    -0.07260
C1255       C  0.89251949  0.11909504  0.17045400    -0.18500
C1256       C  0.87016689  0.13948587  0.16429825     0.09890
S1257       S  0.90967882  0.08260700  0.09393941    -0.33460
S1258       S  0.86249753  0.16507159  0.19376151    -0.33470
H1259       H  0.82902382  0.16836678  0.18425325     0.27900
H1260       H  0.95003711  0.09589713  0.10416647     0.27900
H1261       H  0.87048419  0.12720569  0.09421588     0.18490
H1262       H  0.90109524  0.11773469  0.19167582     0.18500
C1263       C  0.78469412  0.14701134  0.49333214    -0.07340
C1264       C  0.75359741  0.13883712  0.01327886    -0.18460
C1265       C  0.71094364  0.11758704  0.00696954     0.09860
C1266       C  0.69761987  0.10822272  0.47930806    -0.07260
C1267       C  0.72799727  0.12105963  0.45876158    -0.18500
C1268       C  0.77095507  0.14094772  0.46516389     0.09890
S1269       S  0.67556139  0.10269893  0.03562193    -0.33460
S1270       S  0.80666129  0.15769239  0.43661070    -0.33470
H1271       H  0.77690855  0.13851478  0.41511395     0.27900
H1272       H  0.64818953  0.06115014  0.02560535     0.27900
H1273       H  0.76155496  0.14929045  0.03441156     0.18490
H1274       H  0.71799277  0.11604284  0.43735621     0.18500
C1275       C  0.89338270  0.30030639  0.47641557    -0.07340
C1276       C  0.90884342  0.27582667  0.46590593    -0.18460
C1277       C  0.88992599  0.23243179  0.47137942     0.09860
C1278       C  0.85446785  0.21261881  0.48965670    -0.07260
C1279       C  0.83770529  0.23771955  0.49816326    -0.18500
C1280       C  0.85629342  0.28050131  0.49177163     0.09890
S1281       S  0.91546209  0.20885425  0.45333905    -0.33460
S1282       S  0.83047858  0.30743076  0.50376111    -0.33470
H1283       H  0.83572090  0.32908105  0.47889425     0.27900
H1284       H  0.88093360  0.16857796  0.44761902     0.27900
H1285       H  0.93649147  0.29100938  0.45306534     0.18490
H1286       H  0.81053637  0.22430481  0.51134226     0.18500
C1287       C  0.85246577  0.14054373  0.49509979    -0.07340
C1288       C  0.89427677  0.15808174  0.50488781    -0.18460
C1289       C  0.91668611  0.13786908  0.50202102     0.09860
C1290       C  0.89820045  0.09865805  0.48804795    -0.07260
C1291       C  0.85650826  0.07948797  0.47901974    -0.18500
C1292       C  0.83276870  0.09852131  0.48321989     0.09890
S1293       S  0.96800128  0.16339109  0.01808264    -0.33460
S1294       S  0.77815135  0.06408916  0.47402332    -0.33470
H1295       H  0.76249134  0.06480761  0.50003912     0.27900
H1296       H  0.96181866  0.12569655  0.52986729     0.27900
H1297       H  0.91030287  0.18872250  0.01501109     0.18490
H1298       H  0.84177093  0.04849937  0.46908283     0.18500
C1299       C  0.83428075  0.16584670  0.09411609    -0.07340
C1300       C  0.85937579  0.20430444  0.07986207    -0.18460
C1301       C  0.86357225  0.20651742  0.05128578     0.09860
C1302       C  0.83643518  0.16993139  0.03475701    -0.07260
C1303       C  0.81317077  0.13117526  0.04888774    -0.18500
C1304       C  0.80968806  0.12852843  0.07742395     0.09890
S1305       S  0.90868632  0.25520332  0.03878066    -0.33460
S1306       S  0.77202835  0.07566757  0.08965241    -0.33290
H1307       H  0.79290614  0.07498646  0.11343906     0.27900
H1308       H  0.93236583  0.26797737  0.06349309     0.27900
H1309       H  0.87717323  0.23404487  0.09071680     0.18490
H1310       H  0.79493732  0.10209131  0.03714739     0.18500
C1311       C  0.83216762  0.16724731  0.50234590    -0.03700
C1312       C  0.83489478  0.16495734  0.62644828    -0.03700
C1313       C  0.66002305  0.34363424  0.87979964    -0.03700
C1314       C  0.66955492  0.34801833  0.75668889    -0.03700
N1315       N  0.97022058  0.06549432  0.97731635    -0.07330
N1316       N  0.96326794  0.09680946  0.98040955    -0.59450
N1317       N  0.97816510  0.49042550  0.50994859    -0.07010
N1318       N  0.97010982  0.47450499  0.53512055    -0.61580
N1319       N  0.51352912  0.02758858  0.50993246    -0.06610
N1320       N  0.53005911  0.03750995  0.53513070    -0.59430
N1321       N  0.93479721  0.02865667  0.97762381    -0.06290
N1322       N  0.90283860  0.03407299  0.98104912    -0.61930
C1323       C  0.92118651  0.07678936  0.98292966     0.94850
C1324       C  0.00295087  0.50385123  0.55059412     0.94620
N1325       N  0.94335460  0.40014873  0.94486609    -0.07520
N1326       N  0.93235186  0.35993088  0.94431662    -0.60030
N1327       N  0.89155112  0.44900062  0.93831286    -0.05640
N1328       N  0.85210940  0.43884278  0.93899199    -0.61280
N1329       N  0.90041334  0.43915542  0.91413157    -0.07550
N1330       N  0.86665868  0.42186561  0.89790704    -0.60300
N1331       N  0.93419192  0.41007619  0.96882517    -0.05280
N1332       N  0.91642359  0.37655055  0.98495757    -0.61370
Mn1333     Mn  0.93424893  0.46910431  0.97411316     1.18440
C1334       C  0.91559801  0.34560766  0.96936280     0.96930
C1335       C  0.83705875  0.42237939  0.91372727     0.97590
N1336       N  0.59044199  0.07317543  0.96844178    -0.07570
N1337       N  0.62322960  0.08998457  0.98531135    -0.63870
N1338       N  0.55511531  0.10027127  0.91340143    -0.06370
N1339       N  0.56735886  0.13167328  0.89579202    -0.64550
N1340       N  0.54553233  0.11043516  0.93713830    -0.07070
N1341       N  0.55085530  0.14876108  0.93603947    -0.64140
N1342       N  0.59986182  0.06282406  0.94478131    -0.05970
N1343       N  0.63899904  0.07196647  0.94516804    -0.64830
Mn1344     Mn  0.53057317  0.06994066  0.97367883     1.10660
C1345       C  0.65317757  0.08850757  0.97064685     0.98150
C1346       C  0.56391523  0.16148988  0.91000133     0.98230
N1347       N  0.97975478  0.48329069  0.87206573    -0.07080
N1348       N  0.96490577  0.47298899  0.84643659    -0.62450
N1349       N  0.55738868  0.48199624  0.90712443    -0.06400
N1350       N  0.58979815  0.47673822  0.90704485    -0.59180
N1351       N  0.52197849  0.44496767  0.90717107    -0.07710
N1352       N  0.52966407  0.41372530  0.90726141    -0.62020
N1353       N  0.51535173  0.02019628  0.87236599    -0.06700
N1354       N  0.52518716  0.03558692  0.84709274    -0.59210
Mn1355     Mn  0.96080392  0.44129148  0.90886663     1.20190
Mn1356     Mn  0.55758936  0.04189768  0.90889422     1.10090
Cl1357     Cl  0.99570227  0.00553867  0.94132509    -0.87180
C1358       C  0.99326657  0.00620141  0.83108065     0.95160
C1359       C  0.57211544  0.43404344  0.90755579     0.94950
N1360       N  0.90503120  0.43958659  0.71647619    -0.07330
N1361       N  0.87226843  0.42449505  0.73280637    -0.59450
N1362       N  0.93704741  0.40864592  0.66204813    -0.07010
N1363       N  0.92076411  0.37522610  0.64528635    -0.61580
N1364       N  0.94690353  0.39912124  0.68600291    -0.06610
N1365       N  0.93840939  0.35965764  0.68583036    -0.59430
N1366       N  0.89602770  0.44939108  0.69240818    -0.06290
N1367       N  0.85731889  0.44134192  0.69185603    -0.61930
C1368       C  0.84278279  0.42594228  0.71711295     0.94850
C1369       C  0.92269286  0.34531551  0.66031340     0.94620
N1370       N  0.51638310  0.02650234  0.62233393    -0.07520
N1371       N  0.53183530  0.03666593  0.59711768    -0.60030
N1372       N  0.94004854  0.02981373  0.65596749    -0.05640
N1373       N  0.90822026  0.03598300  0.65521017    -0.61280
N1374       N  0.97586735  0.06642121  0.65712468    -0.07550
N1375       N  0.96908526  0.09825386  0.65729005    -0.60300
N1376       N  0.98065517  0.48973115  0.62185243    -0.05280
N1377       N  0.97124741  0.47431680  0.59637428    -0.61370
Mn1378     Mn  0.93797126  0.46888634  0.65743258     1.18440
C1379       C  0.00365536  0.50355552  0.58116097     0.96930
C1380       C  0.92671760  0.07874949  0.65648079     0.97590
N1381       N  0.52318161  0.44192537  0.72665406    -0.07570
N1382       N  0.52924762  0.40973126  0.72855188    -0.63870
N1383       N  0.51912442  0.01934594  0.75999357    -0.06370
N1384       N  0.52773276  0.03490963  0.78550142    -0.64550
N1385       N  0.98289383  0.48296846  0.75929127    -0.07070
N1386       N  0.96643565  0.47325490  0.78426068    -0.64140
N1387       N  0.55918491  0.47823326  0.72677629    -0.05970
N1388       N  0.59045132  0.47148499  0.72860455    -0.64830
Mn1389     Mn  0.96392596  0.44033791  0.72262004     1.10660
C1390       C  0.57150517  0.42860725  0.72957674     0.98150
C1391       C  0.99439201  0.00616001  0.80041167     0.98230
N1392       N  0.55535552  0.11044841  0.69578603    -0.07080
N1393       N  0.56549221  0.15048504  0.69605839    -0.62450
N1394       N  0.60459554  0.05808700  0.68817723    -0.06400
N1395       N  0.64317430  0.06532881  0.68765197    -0.59180
N1396       N  0.59504000  0.06845488  0.66443967    -0.07710
N1397       N  0.62710644  0.08310920  0.64747776    -0.62020
N1398       N  0.56495957  0.10034615  0.71957624    -0.06700
N1399       N  0.58212741  0.13363591  0.73641876    -0.59210
Mn1400     Mn  0.53613268  0.06861300  0.65938195     1.20190
Mn1401     Mn  0.56262073  0.03954004  0.72419093     1.10090
Cl1402     Cl  0.00023199  0.00437423  0.69091558    -0.87180
C1403       C  0.58171063  0.16455017  0.72158775     0.95160
C1404       C  0.65690197  0.08056705  0.66207059     0.94950
C1405       C  0.60196374  0.20970802  0.73033625    -0.07340
C1406       C  0.61851802  0.24131382  0.71031437    -0.18460
C1407       C  0.63844805  0.28490763  0.71686799     0.09860
C1408       C  0.64616371  0.29936808  0.74537827    -0.07260
C1409       C  0.62751047  0.26511696  0.76492193    -0.18500
C1410       C  0.60541667  0.22207513  0.75791868     0.09890
S1411       S  0.64787678  0.31563016  0.68603492    -0.33460
S1412       S  0.58032314  0.18456054  0.78553369    -0.33470
H1413       H  0.54301313  0.15815036  0.77055150     0.27900
H1414       H  0.62822051  0.33727551  0.69426905     0.27900
H1415       H  0.61478097  0.23167265  0.68879410     0.18490
H1416       H  0.62808486  0.26989413  0.78678744     0.18500
C1417       C  0.64548494  0.37056590  0.74661734    -0.07340
C1418       C  0.60180354  0.34501677  0.74031546    -0.18460
C1419       C  0.57730613  0.36223875  0.73285511     0.09860
C1420       C  0.59516556  0.40664615  0.73352022    -0.07260
C1421       C  0.63789273  0.43231012  0.73932982    -0.18500
C1422       C  0.66339891  0.41589612  0.74502789     0.09890
S1423       S  0.52388125  0.32553861  0.72216263    -0.33460
S1424       S  0.71802226  0.45679607  0.74946590    -0.33470
H1425       H  0.71839713  0.48635592  0.73099987     0.27900
H1426       H  0.52609544  0.34932567  0.69887903     0.27900
H1427       H  0.58585032  0.31076754  0.74120293     0.18490
H1428       H  0.65196935  0.46647504  0.73981283     0.18500
C1429       C  0.71713706  0.37575935  0.74756973    -0.07340
C1430       C  0.72573703  0.38418303  0.71936350    -0.18460
C1431       C  0.76583745  0.40116795  0.70847853     0.09860
C1432       C  0.79976900  0.41103330  0.72638598    -0.07260
C1433       C  0.79329193  0.41000769  0.75465020    -0.18500
C1434       C  0.75412754  0.39845318  0.76508996     0.09890
S1435       S  0.77110512  0.41098801  0.67195262    -0.33460
S1436       S  0.75946501  0.42587925  0.79748412    -0.33470
H1437       H  0.72057053  0.42290530  0.79683669     0.27900
H1438       H  0.79893448  0.45501050  0.67562987     0.27900
H1439       H  0.70252453  0.38394120  0.70626103     0.18490
H1440       H  0.82009621  0.42314343  0.76862601     0.18500
C1441       C  0.63453539  0.29521564  0.88861527    -0.07340
C1442       C  0.59421338  0.27694164  0.90069899    -0.18460
C1443       C  0.56987133  0.23364454  0.90753301     0.09860
C1444       C  0.58453839  0.20631315  0.90128548    -0.07260
C1445       C  0.62296104  0.22287738  0.88843681    -0.18500
C1446       C  0.64856082  0.26603306  0.88283848     0.09890
S1447       S  0.51958488  0.21496242  0.92316457    -0.33460
S1448       S  0.69924263  0.27987630  0.86950552    -0.33470
H1449       H  0.70330560  0.24901444  0.88384113     0.27900
H1450       H  0.49992790  0.17362354  0.91194651     0.27900
H1451       H  0.58004997  0.29561266  0.90417334     0.18490
H1452       H  0.63417418  0.20173414  0.88367407     0.18500
C1453       C  0.63950468  0.37023459  0.88875328    -0.07340
C1454       C  0.63234551  0.39441113  0.86906302    -0.18460
C1455       C  0.61026848  0.41435224  0.87480544     0.09860
C1456       C  0.59559760  0.41288141  0.90147881    -0.07260
C1457       C  0.60576220  0.39329053  0.92232732    -0.18500
C1458       C  0.62875541  0.37354259  0.91651347     0.09890
S1459       S  0.60210543  0.44156669  0.84677514    -0.33460
S1460       S  0.64300138  0.35305818  0.94543610    -0.33470
H1461       H  0.68457746  0.38783443  0.94562903     0.27900
H1462       H  0.56091580  0.42943586  0.85386208     0.27900
H1463       H  0.64380640  0.39864241  0.84835184     0.18490
H1464       H  0.59641407  0.39402476  0.94333391     0.18500
C1465       C  0.79238240  0.40263723  0.90617330    -0.07340
C1466       C  0.78035266  0.42544462  0.88973433    -0.18460
C1467       C  0.73808573  0.40990032  0.88341313     0.09860
C1468       C  0.70606268  0.36827018  0.89211038    -0.07260
C1469       C  0.71870891  0.34910152  0.91214148    -0.18500
C1470       C  0.76105272  0.36487546  0.91845616     0.09890
S1471       S  0.72883448  0.44774683  0.86670956    -0.33460
S1472       S  0.77297417  0.33462219  0.94193028    -0.33470
H1473       H  0.81165554  0.34553654  0.93025100     0.27900
H1474       H  0.71185587  0.42336891  0.84289536     0.27900
H1475       H  0.80420294  0.45648430  0.88237456     0.18490
H1476       H  0.69582386  0.32024392  0.92227401     0.18500
C1477       C  0.66029404  0.34012796  0.84764169    -0.07340
C1478       C  0.69535195  0.34454729  0.83383345    -0.18460
C1479       C  0.69392630  0.33685085  0.80559294     0.09860
C1480       C  0.66715571  0.34500217  0.78882827    -0.07260
C1481       C  0.63049153  0.33781746  0.80237574    -0.18500
C1482       C  0.62462784  0.32867253  0.83053686     0.09890
S1483       S  0.72608246  0.31587583  0.79428980    -0.33460
S1484       S  0.57183079  0.30521842  0.84300378    -0.33470
H1485       H  0.56709684  0.26485456  0.84500844     0.27900
H1486       H  0.71305677  0.30649975  0.76673075     0.27900
H1487       H  0.72325233  0.35092572  0.84485298     0.18490
H1488       H  0.60402423  0.33433115  0.79098363     0.18500
C1489       C  0.70098820  0.09894302  0.65264413    -0.07340
C1490       C  0.71516741  0.12864114  0.63143434    -0.18460
C1491       C  0.75682791  0.15022475  0.62261696     0.09860
C1492       C  0.78701213  0.14150586  0.63495235    -0.07260
C1493       C  0.77075453  0.10855950  0.65475273    -0.18500
C1494       C  0.72936215  0.08867693  0.66422470     0.09890
S1495       S  0.76599530  0.18660373  0.59465233    -0.33460
S1496       S  0.71442964  0.04929091  0.69060471    -0.33470
H1497       H  0.71240838  0.07558416  0.71090521     0.27900
H1498       H  0.80467659  0.22073946  0.60339750     0.27900
H1499       H  0.69355032  0.13627493  0.62189680     0.18490
H1500       H  0.79008628  0.09774631  0.66356010     0.18500
C1501       C  0.90086831  0.29997767  0.65303997    -0.07340
C1502       C  0.92440108  0.28217796  0.64545091    -0.18460
C1503       C  0.90522128  0.23912435  0.63806061     0.09860
C1504       C  0.86012864  0.21174780  0.63879899    -0.07260
C1505       C  0.83813345  0.23010680  0.65025945    -0.18500
C1506       C  0.85737458  0.27346927  0.65609315     0.09890
S1507       S  0.94183138  0.22351027  0.62795986    -0.33460
S1508       S  0.82403972  0.29306825  0.66654215    -0.33470
H1509       H  0.85301957  0.32520752  0.68448402     0.27900
H1510       H  0.92431556  0.20760644  0.60183863     0.27900
H1511       H  0.95827176  0.30246008  0.64455628     0.18490
H1512       H  0.80497964  0.21156825  0.65405033     0.18500
C1513       C  0.85820129  0.14124004  0.63619248    -0.07340
C1514       C  0.87317696  0.12402551  0.61598111    -0.18460
C1515       C  0.89476117  0.10380472  0.62234483     0.09860
C1516       C  0.90435508  0.10083889  0.64978071    -0.07260
C1517       C  0.89251953  0.11909442  0.67045484    -0.18500
C1518       C  0.87016692  0.13948525  0.66429909     0.09890
S1519       S  0.90967857  0.08260603  0.59394028    -0.33460
S1520       S  0.86249780  0.16507129  0.69376225    -0.33470
H1521       H  0.82902439  0.16836691  0.68425389     0.27900
H1522       H  0.95003726  0.09589718  0.60416700     0.27900
H1523       H  0.87048427  0.12720486  0.59421673     0.18490
H1524       H  0.90109539  0.11773419  0.69167666     0.18500
C1525       C  0.78469443  0.14701706  0.99333164    -0.07340
C1526       C  0.75359711  0.13883274  0.51327906    -0.18460
C1527       C  0.71094344  0.11758346  0.50696953     0.09860
C1528       C  0.69761990  0.10822676  0.97930808    -0.07260
C1529       C  0.72799715  0.12106505  0.95876141    -0.18500
C1530       C  0.77095508  0.14095407  0.96516347     0.09890
S1531       S  0.67556110  0.10269704  0.53562176    -0.33460
S1532       S  0.80666095  0.15770077  0.93661002    -0.33470
H1533       H  0.77690811  0.13852427  0.91511322     0.27900
H1534       H  0.64818922  0.06114776  0.52560594     0.27900
H1535       H  0.76155458  0.14928663  0.53441167     0.18490
H1536       H  0.71799239  0.11604867  0.93735610     0.18500
C1537       C  0.89338091  0.30031293  0.97641622    -0.07340
C1538       C  0.90884176  0.27583382  0.96590580    -0.18460
C1539       C  0.88992498  0.23243898  0.97137877     0.09860
C1540       C  0.85446748  0.21262535  0.98965656    -0.07260
C1541       C  0.83770472  0.23772548  0.99816412    -0.18500
C1542       C  0.85629228  0.28050737  0.99177293     0.09890
S1543       S  0.91546083  0.20886254  0.95333668    -0.33460
S1544       S  0.83047769  0.30743633  0.00376383    -0.33470
H1545       H  0.83571802  0.32908628  0.97889709     0.27900
H1546       H  0.88093295  0.16858562  0.94761729     0.27900
H1547       H  0.93648934  0.29101697  0.95306479     0.18490
H1548       H  0.81053619  0.22431013  0.01134349     0.18500
C1549       C  0.85246719  0.14055132  0.99509810    -0.07340
C1550       C  0.89427877  0.15809058  0.00488528    -0.18460
C1551       C  0.91668918  0.13787921  0.00201767     0.09860
C1552       C  0.89820343  0.09866751  0.98804542    -0.07260
C1553       C  0.85651089  0.07949653  0.97901773    -0.18500
C1554       C  0.83277074  0.09852911  0.98321804     0.09890
S1555       S  0.96799655  0.16337818  0.51808822    -0.33460
S1556       S  0.77815357  0.06409647  0.97402120    -0.33470
H1557       H  0.76249309  0.06481332  0.00003713     0.27900
H1558       H  0.96182463  0.12571134  0.02986403     0.27900
H1559       H  0.91030118  0.18871349  0.51501382     0.18490
H1560       H  0.84177372  0.04850771  0.96908112     0.18500
C1561       C  0.83427983  0.16584447  0.59411686    -0.07340
C1562       C  0.85937513  0.20430151  0.57986228    -0.18460
C1563       C  0.86357184  0.20651311  0.55128602     0.09860
C1564       C  0.83643447  0.16992650  0.53475777    -0.07260
C1565       C  0.81316949  0.13117107  0.54888912    -0.18500
C1566       C  0.80968680  0.12852551  0.57742533     0.09890
S1567       S  0.90868682  0.25519780  0.53878040    -0.33460
S1568       S  0.77202705  0.07566522  0.58965463    -0.33290
H1569       H  0.79290596  0.07498454  0.61344082     0.27900
H1570       H  0.93236589  0.26797272  0.56349300     0.27900
H1571       H  0.87717294  0.23404231  0.59071664     0.18490
H1572       H  0.79493574  0.10208662  0.53714921     0.18500
C1573       C  0.83216808  0.66725354  0.00234514    -0.03700
C1574       C  0.83489506  0.66495837  0.12644753    -0.03700
C1575       C  0.66002344  0.84362964  0.37979997    -0.03700
C1576       C  0.66955537  0.84801819  0.25668927    -0.03700
N1577       N  0.97021877  0.56548697  0.47731676    -0.07330
N1578       N  0.96326530  0.59680143  0.48041069    -0.59450
N1579       N  0.97816429  0.99043130  0.00994836    -0.07010
N1580       N  0.97010891  0.97451004  0.03512010    -0.61580
N1581       N  0.51352887  0.52759385  0.00993241    -0.06610
N1582       N  0.53005916  0.53751418  0.03513059    -0.59430
N1583       N  0.93479587  0.52864883  0.47762436    -0.06290
N1584       N  0.90283675  0.53406420  0.48105045    -0.61930
C1585       C  0.92118390  0.57678047  0.48293137     0.94850
C1586       C  0.00295047  0.00385530  0.05059375     0.94620
N1587       N  0.94335663  0.90014273  0.44486588    -0.07520
N1588       N  0.93235418  0.85992490  0.44431620    -0.60030
N1589       N  0.89155114  0.94899252  0.43831332    -0.05640
N1590       N  0.85210915  0.93883375  0.43899266    -0.61280
N1591       N  0.90041358  0.93914802  0.41413186    -0.07550
N1592       N  0.86665882  0.92185779  0.39790741    -0.60300
N1593       N  0.93419409  0.91006988  0.46882513    -0.05280
N1594       N  0.91642615  0.87654406  0.48495739    -0.61370
Mn1595     Mn  0.93424940  0.96909727  0.47411344     1.18440
C1596       C  0.91560065  0.84560136  0.46936243     0.96930
C1597       C  0.83705857  0.92237044  0.41372793     0.97590
N1598       N  0.59044186  0.57317149  0.46844158    -0.07570
N1599       N  0.62322946  0.58998071  0.48531116    -0.63870
N1600       N  0.55511380  0.60026623  0.41340147    -0.06370
N1601       N  0.56735736  0.63166839  0.39579218    -0.64550
N1602       N  0.54553057  0.61042982  0.43713835    -0.07070
N1603       N  0.55085352  0.64875579  0.43603964    -0.64140
N1604       N  0.59986186  0.56282040  0.44478107    -0.05970
N1605       N  0.63899919  0.57196312  0.44516777    -0.64830
Mn1606     Mn  0.53057223  0.56993514  0.47367885     1.10660
C1607       C  0.65317763  0.58850412  0.47064661     0.98150
C1608       C  0.56391364  0.66148489  0.41000154     0.98230
N1609       N  0.97975494  0.98328554  0.37206564    -0.07080
N1610       N  0.96490597  0.97298431  0.34643645    -0.62450
N1611       N  0.55738987  0.98199258  0.40712424    -0.06400
N1612       N  0.58979980  0.97673528  0.40704503    -0.59180
N1613       N  0.52198008  0.94496365  0.40717083    -0.07710
N1614       N  0.52966635  0.91372179  0.40726154    -0.62020
N1615       N  0.51535145  0.52019155  0.37236610    -0.06700
N1616       N  0.52518656  0.53558298  0.34709303    -0.59210
Mn1617     Mn  0.96080492  0.94128586  0.40886651     1.20190
Mn1618     Mn  0.55758917  0.54189335  0.40889417     1.10090
Cl1619     Cl  0.99570231  0.50553304  0.44132512    -0.87180
C1620       C  0.99326632  0.50619751  0.33108076     0.95160
C1621       C  0.57211773  0.93404056  0.40755618     0.94950
N1622       N  0.90503133  0.93958648  0.21647569    -0.07330
N1623       N  0.87226859  0.92449482  0.23280591    -0.59450
N1624       N  0.93704773  0.90864664  0.16204739    -0.07010
N1625       N  0.92076420  0.87522683  0.14528558    -0.61580
N1626       N  0.94690403  0.89912185  0.18600207    -0.06610
N1627       N  0.93840986  0.85965827  0.18582943    -0.59430
N1628       N  0.89602782  0.94939129  0.19240779    -0.06290
N1629       N  0.85731902  0.94134221  0.19185577    -0.61930
C1630       C  0.84278295  0.92594231  0.21711264     0.94850
C1631       C  0.92269307  0.84531621  0.16031253     0.94620
N1632       N  0.51638343  0.52650374  0.12233380    -0.07520
N1633       N  0.53183541  0.53666821  0.09711755    -0.60030
N1634       N  0.94004862  0.52981445  0.15596734    -0.05640
N1635       N  0.90822034  0.53598370  0.15520956    -0.61280
N1636       N  0.97586741  0.56642193  0.15712472    -0.07550
N1637       N  0.96908530  0.59825458  0.15728975    -0.60300
N1638       N  0.98065549  0.98973257  0.12185205    -0.05280
N1639       N  0.97124750  0.97431914  0.09637370    -0.61370
Mn1640     Mn  0.93797147  0.96888709  0.15743219     1.18440
C1641       C  0.00365534  0.00355838  0.08116055     0.96930
C1642       C  0.92671765  0.57875020  0.15648007     0.97590
N1643       N  0.52318190  0.94192522  0.22665340    -0.07570
N1644       N  0.52924793  0.90973113  0.22855141    -0.63870
N1645       N  0.51912424  0.51934494  0.25999359    -0.06370
N1646       N  0.52773252  0.53490761  0.28550171    -0.64550
N1647       N  0.98289369  0.98296742  0.25929097    -0.07070
N1648       N  0.96643551  0.97325284  0.28426034    -0.64140
N1649       N  0.55918518  0.97823313  0.22677584    -0.05970
N1650       N  0.59045160  0.97148490  0.22860445    -0.64830
Mn1651     Mn  0.96392617  0.94033779  0.22261940     1.10660
C1652       C  0.57150549  0.92860714  0.22957661     0.98150
C1653       C  0.99439179  0.50615734  0.30041174     0.98230
N1654       N  0.55535534  0.61044844  0.19578634    -0.07080
N1655       N  0.56549212  0.65048507  0.19605876    -0.62450
N1656       N  0.60459583  0.55808757  0.18817708    -0.06400
N1657       N  0.64317463  0.56532945  0.18765166    -0.59180
N1658       N  0.59504022  0.56845569  0.16443964    -0.07710
N1659       N  0.62710662  0.58311025  0.14747767    -0.62020
N1660       N  0.56495946  0.60034604  0.21957648    -0.06700
N1661       N  0.58212746  0.63363578  0.23641901    -0.59210
Mn1662     Mn  0.53613278  0.56861369  0.15938206     1.20190
Mn1663     Mn  0.56262081  0.53953991  0.22419085     1.10090
Cl1664     Cl  0.00023214  0.50437454  0.19091534    -0.87180
C1665       C  0.58171068  0.66455010  0.22158807     0.95160
C1666       C  0.65690224  0.58056801  0.16207031     0.94950
C1667       C  0.60196392  0.70970793  0.23033654    -0.07340
C1668       C  0.61851843  0.74131376  0.21031466    -0.18460
C1669       C  0.63844848  0.78490757  0.21686830     0.09860
C1670       C  0.64616397  0.79936794  0.24537858    -0.07260
C1671       C  0.62751038  0.76511673  0.26492219    -0.18500
C1672       C  0.60541658  0.72207496  0.25791893     0.09890
S1673       S  0.64787742  0.81563023  0.18603528    -0.33460
S1674       S  0.58032265  0.68456031  0.28553387    -0.33470
H1675       H  0.54301278  0.65815023  0.27055153     0.27900
H1676       H  0.62822207  0.83727637  0.19426971     0.27900
H1677       H  0.61478152  0.73167262  0.18879439     0.18490
H1678       H  0.62808440  0.76989371  0.28678769     0.18500
C1679       C  0.64548519  0.87056579  0.24661807    -0.07340
C1680       C  0.60180384  0.84501666  0.24031603    -0.18460
C1681       C  0.57730647  0.86223863  0.23285548     0.09860
C1682       C  0.59516585  0.90664604  0.23352054    -0.07260
C1683       C  0.63789291  0.93231000  0.23933053    -0.18500
C1684       C  0.66339906  0.91589600  0.24502887     0.09890
S1685       S  0.52388173  0.82553846  0.22216276    -0.33460
S1686       S  0.71802225  0.95679593  0.24946761    -0.33470
H1687       H  0.71839759  0.98635621  0.23100173     0.27900
H1688       H  0.52609626  0.84932540  0.19887900     0.27900
H1689       H  0.58585063  0.81076743  0.24120343     0.18490
H1690       H  0.65196946  0.96647491  0.23981363     0.18500
C1691       C  0.71713743  0.87575937  0.24756994    -0.07340
C1692       C  0.72573722  0.88418353  0.21936373    -0.18460
C1693       C  0.76583757  0.90116843  0.20847859     0.09860
C1694       C  0.79976924  0.91103344  0.22638585    -0.07260
C1695       C  0.79329236  0.91000752  0.25465011    -0.18500
C1696       C  0.75412806  0.89845286  0.26509010     0.09890
S1697       S  0.77110502  0.91098877  0.17195271    -0.33460
S1698       S  0.75946578  0.92587796  0.29748472    -0.33470
H1699       H  0.72057145  0.92290437  0.29683777     0.27900
H1700       H  0.79893470  0.95501118  0.17563006     0.27900
H1701       H  0.70252460  0.88394180  0.20626142     0.18490
H1702       H  0.82009673  0.92314296  0.26862583     0.18500
C1703       C  0.63453478  0.79521079  0.38861516    -0.07340
C1704       C  0.59421313  0.77693734  0.40069935    -0.18460
C1705       C  0.56987079  0.73364028  0.40753357     0.09860
C1706       C  0.58453711  0.70630833  0.40128574    -0.07260
C1707       C  0.62295923  0.72287203  0.38843640    -0.18500
C1708       C  0.64855926  0.76602760  0.38283781     0.09890
S1709       S  0.51958495  0.71495896  0.42316581    -0.33460
S1710       S  0.69924023  0.77987001  0.36950375    -0.33470
H1711       H  0.70330337  0.74900803  0.38383907     0.27900
H1712       H  0.49992714  0.67362003  0.41194778     0.27900
H1713       H  0.58005029  0.79560884  0.40417400     0.18490
H1714       H  0.63417181  0.70172844  0.38367328     0.18500
C1715       C  0.63950609  0.87023086  0.38875387    -0.07340
C1716       C  0.63234824  0.89440860  0.36906380    -0.18460
C1717       C  0.61027196  0.91435044  0.37480623     0.09860
C1718       C  0.59560039  0.91287902  0.40147944    -0.07260
C1719       C  0.60576386  0.89328706  0.42232787    -0.18500
C1720       C  0.62875659  0.87353860  0.41651403     0.09890
S1721       S  0.60211047  0.94156623  0.34677609    -0.33460
S1722       S  0.64300176  0.85305332  0.44543657    -0.33470
H1723       H  0.68457861  0.88782811  0.44562895     0.27900
H1724       H  0.56092052  0.92943524  0.35386228     0.27900
H1725       H  0.64380965  0.89864034  0.34835275     0.18490
H1726       H  0.59641518  0.89402081  0.44333438     0.18500
C1727       C  0.79238240  0.90262900  0.40617373    -0.07340
C1728       C  0.78035347  0.92543759  0.38973533    -0.18460
C1729       C  0.73808678  0.90989447  0.38341423     0.09860
C1730       C  0.70606301  0.86826426  0.39211087    -0.07260
C1731       C  0.71870850  0.84909422  0.41214144    -0.18500
C1732       C  0.76105213  0.86486707  0.41845610     0.09890
S1733       S  0.72883688  0.94774255  0.36671165    -0.33460
S1734       S  0.77297258  0.83461230  0.44192954    -0.33470
H1735       H  0.81165399  0.84552666  0.43025030     0.27900
H1736       H  0.71185874  0.92336595  0.34289692     0.27900
H1737       H  0.80420426  0.95647739  0.38237602     0.18490
H1738       H  0.69582299  0.82023650  0.42227364     0.18500
C1739       C  0.66029455  0.84012426  0.34764197    -0.07340
C1740       C  0.69535249  0.84454415  0.33383347    -0.18460
C1741       C  0.69392702  0.83684928  0.30559276     0.09860
C1742       C  0.66715663  0.84500164  0.28882862    -0.07260
C1743       C  0.63049266  0.83781699  0.30237638    -0.18500
C1744       C  0.62462858  0.82867018  0.33053725     0.09890
S1745       S  0.72608306  0.81587458  0.29428873    -0.33460
S1746       S  0.57183156  0.80521621  0.34300419    -0.33470
H1747       H  0.56709760  0.76485237  0.34500911     0.27900
H1748       H  0.71305727  0.80649935  0.26672966     0.27900
H1749       H  0.72325262  0.85092155  0.34485289     0.18490
H1750       H  0.60402565  0.83433186  0.29098452     0.18500
C1751       C  0.70098843  0.59894392  0.15264363    -0.07340
C1752       C  0.71516762  0.62864225  0.13143395    -0.18460
C1753       C  0.75682806  0.65022575  0.12261637     0.09860
C1754       C  0.78701228  0.64150660  0.13495146    -0.07260
C1755       C  0.77075459  0.60855987  0.15475161    -0.18500
C1756       C  0.72936231  0.58867741  0.16422379     0.09890
S1757       S  0.76599542  0.68660494  0.09465191    -0.33460
S1758       S  0.71442983  0.54929101  0.19060354    -0.33470
H1759       H  0.71240869  0.57558401  0.21090429     0.27900
H1760       H  0.80467628  0.72074090  0.10339751     0.27900
H1761       H  0.69355056  0.63627630  0.12189665     0.18490
H1762       H  0.79008626  0.59774641  0.16355873     0.18500
C1763       C  0.90086846  0.79997839  0.15303920    -0.07340
C1764       C  0.92440127  0.78217866  0.14545032    -0.18460
C1765       C  0.90522151  0.73912501  0.13806026     0.09860
C1766       C  0.86012887  0.71174849  0.13879867    -0.07260
C1767       C  0.83813367  0.73010743  0.15025918    -0.18500
C1768       C  0.85737478  0.77346995  0.15609267     0.09890
S1769       S  0.94183155  0.72351096  0.12795933    -0.33460
S1770       S  0.82403996  0.79306894  0.16654176    -0.33470
H1771       H  0.85302004  0.82520853  0.18448337     0.27900
H1772       H  0.92431582  0.70760768  0.10183800     0.27900
H1773       H  0.95827194  0.80246082  0.14455560     0.18490
H1774       H  0.80497988  0.71156879  0.15405015     0.18500
C1775       C  0.85820140  0.64124085  0.13619163    -0.07340
C1776       C  0.87317705  0.62402636  0.11598023    -0.18460
C1777       C  0.89476131  0.60380557  0.12234397     0.09860
C1778       C  0.90435517  0.60083964  0.14977986    -0.07260
C1779       C  0.89251949  0.61909504  0.17045400    -0.18500
C1780       C  0.87016688  0.63948586  0.16429825     0.09890
S1781       S  0.90967883  0.58260700  0.09393941    -0.33460
S1782       S  0.86249751  0.66507157  0.19376151    -0.33470
H1783       H  0.82902380  0.66836676  0.18425325     0.27900
H1784       H  0.95003712  0.59589715  0.10416647     0.27900
H1785       H  0.87048418  0.62720568  0.09421588     0.18490
H1786       H  0.90109523  0.61773469  0.19167582     0.18500
C1787       C  0.78469412  0.64701134  0.49333213    -0.07340
C1788       C  0.75359742  0.63883712  0.01327886    -0.18460
C1789       C  0.71094364  0.61758703  0.00696954     0.09860
C1790       C  0.69761987  0.60822272  0.47930805    -0.07260
C1791       C  0.72799727  0.62105963  0.45876158    -0.18500
C1792       C  0.77095507  0.64094772  0.46516389     0.09890
S1793       S  0.67556140  0.60269893  0.03562193    -0.33460
S1794       S  0.80666129  0.65769239  0.43661070    -0.33470
H1795       H  0.77690855  0.63851479  0.41511394     0.27900
H1796       H  0.64818953  0.56115013  0.02560535     0.27900
H1797       H  0.76155496  0.64929045  0.03441156     0.18490
H1798       H  0.71799277  0.61604284  0.43735621     0.18500
C1799       C  0.89338271  0.80030639  0.47641557    -0.07340
C1800       C  0.90884342  0.77582667  0.46590593    -0.18460
C1801       C  0.88992599  0.73243179  0.47137941     0.09860
C1802       C  0.85446785  0.71261882  0.48965669    -0.07260
C1803       C  0.83770529  0.73771955  0.49816326    -0.18500
C1804       C  0.85629343  0.78050131  0.49177163     0.09890
S1805       S  0.91546209  0.70885425  0.45333905    -0.33460
S1806       S  0.83047859  0.80743076  0.50376111    -0.33470
H1807       H  0.83572091  0.82908106  0.47889425     0.27900
H1808       H  0.88093360  0.66857796  0.44761902     0.27900
H1809       H  0.93649147  0.79100938  0.45306534     0.18490
H1810       H  0.81053637  0.72430481  0.51134225     0.18500
C1811       C  0.85246576  0.64054373  0.49509978    -0.07340
C1812       C  0.89427677  0.65808174  0.50488780    -0.18460
C1813       C  0.91668611  0.63786908  0.50202101     0.09860
C1814       C  0.89820045  0.59865805  0.48804795    -0.07260
C1815       C  0.85650825  0.57948797  0.47901973    -0.18500
C1816       C  0.83276870  0.59852131  0.48321989     0.09890
S1817       S  0.96800128  0.66339109  0.01808264    -0.33460
S1818       S  0.77815135  0.56408916  0.47402331    -0.33470
H1819       H  0.76249134  0.56480761  0.50003912     0.27900
H1820       H  0.96181865  0.62569655  0.52986728     0.27900
H1821       H  0.91030287  0.68872249  0.01501108     0.18490
H1822       H  0.84177092  0.54849936  0.46908283     0.18500
C1823       C  0.83428074  0.66584669  0.09411608    -0.07340
C1824       C  0.85937578  0.70430443  0.07986206    -0.18460
C1825       C  0.86357224  0.70651741  0.05128578     0.09860
C1826       C  0.83643518  0.66993139  0.03475701    -0.07260
C1827       C  0.81317077  0.63117526  0.04888774    -0.18500
C1828       C  0.80968806  0.62852842  0.07742395     0.09890
S1829       S  0.90868632  0.75520331  0.03878066    -0.33460
S1830       S  0.77202834  0.57566756  0.08965241    -0.33290
H1831       H  0.79290613  0.57498645  0.11343905     0.27900
H1832       H  0.93236583  0.76797737  0.06349309     0.27900
H1833       H  0.87717322  0.73404486  0.09071680     0.18490
H1834       H  0.79493732  0.60209130  0.03714739     0.18500
C1835       C  0.83216762  0.66724731  0.50234589    -0.03700
C1836       C  0.83489478  0.66495735  0.62644827    -0.03700
C1837       C  0.66002304  0.84363424  0.87979964    -0.03700
C1838       C  0.66955494  0.84801834  0.75668889    -0.03700
N1839       N  0.97022058  0.56549432  0.97731635    -0.07330
N1840       N  0.96326794  0.59680946  0.98040955    -0.59450
N1841       N  0.97816511  0.99042550  0.50994860    -0.07010
N1842       N  0.97010983  0.97450499  0.53512056    -0.61580
N1843       N  0.51352912  0.52758858  0.50993246    -0.06610
N1844       N  0.53005911  0.53750995  0.53513070    -0.59430
N1845       N  0.93479721  0.52865667  0.97762381    -0.06290
N1846       N  0.90283860  0.53407299  0.98104911    -0.61930
C1847       C  0.92118651  0.57678936  0.98292965     0.94850
C1848       C  0.00295088  0.00385124  0.55059412     0.94620
N1849       N  0.94335459  0.90014873  0.94486609    -0.07520
N1850       N  0.93235185  0.85993088  0.94431662    -0.60030
N1851       N  0.89155111  0.94900062  0.93831286    -0.05640
N1852       N  0.85210939  0.93884278  0.93899199    -0.61280
N1853       N  0.90041333  0.93915543  0.91413157    -0.07550
N1854       N  0.86665867  0.92186562  0.89790704    -0.60300
N1855       N  0.93419191  0.91007619  0.96882517    -0.05280
N1856       N  0.91642358  0.87655055  0.98495757    -0.61370
Mn1857     Mn  0.93424893  0.96910431  0.97411316     1.18440
C1858       C  0.91559800  0.84560766  0.96936280     0.96930
C1859       C  0.83705874  0.92237939  0.91372727     0.97590
N1860       N  0.59044199  0.57317543  0.96844178    -0.07570
N1861       N  0.62322960  0.58998456  0.98531135    -0.63870
N1862       N  0.55511531  0.60027127  0.91340143    -0.06370
N1863       N  0.56735887  0.63167328  0.89579202    -0.64550
N1864       N  0.54553234  0.61043515  0.93713830    -0.07070
N1865       N  0.55085530  0.64876107  0.93603946    -0.64140
N1866       N  0.59986182  0.56282405  0.94478130    -0.05970
N1867       N  0.63899905  0.57196647  0.94516804    -0.64830
Mn1868     Mn  0.53057317  0.56994065  0.97367883     1.10660
C1869       C  0.65317757  0.58850757  0.97064685     0.98150
C1870       C  0.56391524  0.66148988  0.91000133     0.98230
N1871       N  0.97975477  0.98329070  0.87206573    -0.07080
N1872       N  0.96490577  0.97298899  0.84643660    -0.62450
N1873       N  0.55738867  0.98199624  0.90712443    -0.06400
N1874       N  0.58979814  0.97673822  0.90704485    -0.59180
N1875       N  0.52197848  0.94496767  0.90717107    -0.07710
N1876       N  0.52966405  0.91372530  0.90726141    -0.62020
N1877       N  0.51535174  0.52019628  0.87236598    -0.06700
N1878       N  0.52518717  0.53558692  0.84709274    -0.59210
Mn1879     Mn  0.96080391  0.94129149  0.90886663     1.20190
Mn1880     Mn  0.55758937  0.54189768  0.90889422     1.10090
Cl1881     Cl  0.99570227  0.50553867  0.94132508    -0.87180
C1882       C  0.99326657  0.50620141  0.83108065     0.95160
C1883       C  0.57211542  0.93404344  0.90755579     0.94950
N1884       N  0.90503121  0.93958659  0.71647620    -0.07330
N1885       N  0.87226844  0.92449505  0.73280638    -0.59450
N1886       N  0.93704742  0.90864593  0.66204813    -0.07010
N1887       N  0.92076412  0.87522611  0.64528635    -0.61580
N1888       N  0.94690355  0.89912125  0.68600291    -0.06610
N1889       N  0.93840941  0.85965765  0.68583036    -0.59430
N1890       N  0.89602772  0.94939109  0.69240819    -0.06290
N1891       N  0.85731890  0.94134192  0.69185605    -0.61930
C1892       C  0.84278281  0.92594229  0.71711296     0.94850
C1893       C  0.92269288  0.84531552  0.66031340     0.94620
N1894       N  0.51638310  0.52650235  0.62233393    -0.07520
N1895       N  0.53183530  0.53666594  0.59711768    -0.60030
N1896       N  0.94004853  0.52981372  0.65596748    -0.05640
N1897       N  0.90822025  0.53598299  0.65521016    -0.61280
N1898       N  0.97586734  0.56642120  0.65712467    -0.07550
N1899       N  0.96908525  0.59825385  0.65729004    -0.60300
N1900       N  0.98065518  0.98973116  0.62185243    -0.05280
N1901       N  0.97124742  0.97431681  0.59637428    -0.61370
Mn1902     Mn  0.93797127  0.96888635  0.65743258     1.18440
C1903       C  0.00365537  0.00355553  0.58116098     0.96930
C1904       C  0.92671759  0.57874948  0.65648078     0.97590
N1905       N  0.52318161  0.94192536  0.72665407    -0.07570
N1906       N  0.52924762  0.90973125  0.72855189    -0.63870
N1907       N  0.51912443  0.51934595  0.75999356    -0.06370
N1908       N  0.52773277  0.53490964  0.78550142    -0.64550
N1909       N  0.98289384  0.98296847  0.75929128    -0.07070
N1910       N  0.96643567  0.97325491  0.78426068    -0.64140
N1911       N  0.55918490  0.97823325  0.72677629    -0.05970
N1912       N  0.59045131  0.97148499  0.72860456    -0.64830
Mn1913     Mn  0.96392597  0.94033792  0.72262004     1.10660
C1914       C  0.57150517  0.92860724  0.72957674     0.98150
C1915       C  0.99439201  0.50616001  0.80041167     0.98230
N1916       N  0.55535553  0.61044842  0.69578603    -0.07080
N1917       N  0.56549222  0.65048505  0.69605839    -0.62450
N1918       N  0.60459555  0.55808700  0.68817722    -0.06400
N1919       N  0.64317431  0.56532882  0.68765196    -0.59180
N1920       N  0.59504001  0.56845489  0.66443967    -0.07710
N1921       N  0.62710645  0.58310922  0.64747776    -0.62020
N1922       N  0.56495958  0.60034615  0.71957624    -0.06700
N1923       N  0.58212742  0.63363592  0.73641876    -0.59210
Mn1924     Mn  0.53613268  0.56861301  0.65938195     1.20190
Mn1925     Mn  0.56262074  0.53954004  0.72419092     1.10090
Cl1926     Cl  0.00023197  0.50437422  0.69091558    -0.87180
C1927       C  0.58171064  0.66455017  0.72158775     0.95160
C1928       C  0.65690197  0.58056707  0.66207059     0.94950
C1929       C  0.60196375  0.70970803  0.73033626    -0.07340
C1930       C  0.61851800  0.74131382  0.71031437    -0.18460
C1931       C  0.63844803  0.78490764  0.71686799     0.09860
C1932       C  0.64616373  0.79936809  0.74537827    -0.07260
C1933       C  0.62751052  0.76511697  0.76492193    -0.18500
C1934       C  0.60541672  0.72207514  0.75791869     0.09890
S1935       S  0.64787671  0.81563016  0.68603491    -0.33460
S1936       S  0.58032323  0.68456055  0.78553370    -0.33470
H1937       H  0.54301320  0.65815038  0.77055153     0.27900
H1938       H  0.62822055  0.83727561  0.69426908     0.27900
H1939       H  0.61478092  0.73167266  0.68879410     0.18490
H1940       H  0.62808495  0.76989414  0.78678744     0.18500
C1941       C  0.64548495  0.87056591  0.74661734    -0.07340
C1942       C  0.60180355  0.84501678  0.74031548    -0.18460
C1943       C  0.57730612  0.86223874  0.73285513     0.09860
C1944       C  0.59516555  0.90664615  0.73352023    -0.07260
C1945       C  0.63789273  0.93231012  0.73932980    -0.18500
C1946       C  0.66339893  0.91589612  0.74502786     0.09890
S1947       S  0.52388123  0.82553859  0.72216269    -0.33460
S1948       S  0.71802228  0.95679608  0.74946583    -0.33470
H1949       H  0.71839713  0.98635590  0.73099979     0.27900
H1950       H  0.52609540  0.84932561  0.69887907     0.27900
H1951       H  0.58585032  0.81076755  0.74120297     0.18490
H1952       H  0.65196936  0.96647504  0.73981279     0.18500
C1953       C  0.71713707  0.87575935  0.74756973    -0.07340
C1954       C  0.72573704  0.88418300  0.71936350    -0.18460
C1955       C  0.76583746  0.90116790  0.70847854     0.09860
C1956       C  0.79976902  0.91103330  0.72638599    -0.07260
C1957       C  0.79329194  0.91000774  0.75465021    -0.18500
C1958       C  0.75412755  0.89845322  0.76508996     0.09890
S1959       S  0.77110512  0.91098789  0.67195261    -0.33460
S1960       S  0.75946499  0.92587931  0.79748411    -0.33470
H1961       H  0.72057050  0.92290534  0.79683667     0.27900
H1962       H  0.79893444  0.95501040  0.67562983     0.27900
H1963       H  0.70252455  0.88394115  0.70626102     0.18490
H1964       H  0.82009623  0.92314351  0.76862602     0.18500
C1965       C  0.63453539  0.79521564  0.88861527    -0.07340
C1966       C  0.59421338  0.77694163  0.90069900    -0.18460
C1967       C  0.56987134  0.73364453  0.90753301     0.09860
C1968       C  0.58453840  0.70631315  0.90128548    -0.07260
C1969       C  0.62296104  0.72287738  0.88843680    -0.18500
C1970       C  0.64856082  0.76603306  0.88283848     0.09890
S1971       S  0.51958488  0.71496241  0.92316458    -0.33460
S1972       S  0.69924262  0.77987631  0.86950551    -0.33470
H1973       H  0.70330560  0.74901445  0.88384111     0.27900
H1974       H  0.49992791  0.67362354  0.91194651     0.27900
H1975       H  0.58004997  0.79561266  0.90417335     0.18490
H1976       H  0.63417418  0.70173415  0.88367407     0.18500
C1977       C  0.63950467  0.87023459  0.88875328    -0.07340
C1978       C  0.63234549  0.89441112  0.86906301    -0.18460
C1979       C  0.61026846  0.91435223  0.87480543     0.09860
C1980       C  0.59559759  0.91288141  0.90147880    -0.07260
C1981       C  0.60576219  0.89329053  0.92232731    -0.18500
C1982       C  0.62875540  0.87354260  0.91651347     0.09890
S1983       S  0.60210540  0.94156666  0.84677513    -0.33460
S1984       S  0.64300137  0.85305819  0.94543610    -0.33470
H1985       H  0.68457746  0.88783444  0.94562903     0.27900
H1986       H  0.56091577  0.92943584  0.85386208     0.27900
H1987       H  0.64380639  0.89864240  0.84835184     0.18490
H1988       H  0.59641407  0.89402477  0.94333391     0.18500
C1989       C  0.79238239  0.90263723  0.90617331    -0.07340
C1990       C  0.78035265  0.92544463  0.88973434    -0.18460
C1991       C  0.73808572  0.90990033  0.88341314     0.09860
C1992       C  0.70606267  0.86827018  0.89211038    -0.07260
C1993       C  0.71870890  0.84910152  0.91214148    -0.18500
C1994       C  0.76105272  0.86487546  0.91845616     0.09890
S1995       S  0.72883446  0.94774683  0.86670957    -0.33460
S1996       S  0.77297417  0.83462218  0.94193027    -0.33470
H1997       H  0.81165555  0.84553654  0.93025099     0.27900
H1998       H  0.71185587  0.92336893  0.84289537     0.27900
H1999       H  0.80420293  0.95648432  0.88237457     0.18490
H2000       H  0.69582386  0.82024391  0.92227400     0.18500
C2001       C  0.66029405  0.84012797  0.84764169    -0.07340
C2002       C  0.69535197  0.84454733  0.83383345    -0.18460
C2003       C  0.69392633  0.83685089  0.80559294     0.09860
C2004       C  0.66715573  0.84500218  0.78882827    -0.07260
C2005       C  0.63049153  0.83781745  0.80237574    -0.18500
C2006       C  0.62462784  0.82867252  0.83053686     0.09890
S2007       S  0.72608251  0.81587589  0.79428981    -0.33460
S2008       S  0.57183079  0.80521840  0.84300378    -0.33470
H2009       H  0.56709686  0.76485453  0.84500843     0.27900
H2010       H  0.71305680  0.80649978  0.76673076     0.27900
H2011       H  0.72325235  0.85092576  0.84485299     0.18490
H2012       H  0.60402422  0.83433112  0.79098363     0.18500
C2013       C  0.70098821  0.59894304  0.65264413    -0.07340
C2014       C  0.71516742  0.62864115  0.63143434    -0.18460
C2015       C  0.75682791  0.65022477  0.62261695     0.09860
C2016       C  0.78701214  0.64150587  0.63495235    -0.07260
C2017       C  0.77075453  0.60855951  0.65475272    -0.18500
C2018       C  0.72936216  0.58867695  0.66422470     0.09890
S2019       S  0.76599530  0.68660374  0.59465233    -0.33460
S2020       S  0.71442965  0.54929092  0.69060471    -0.33470
H2021       H  0.71240839  0.57558417  0.71090521     0.27900
H2022       H  0.80467659  0.72073947  0.60339749     0.27900
H2023       H  0.69355033  0.63627494  0.62189680     0.18490
H2024       H  0.79008628  0.59774633  0.66356010     0.18500
C2025       C  0.90086833  0.79997768  0.65303997    -0.07340
C2026       C  0.92440109  0.78217797  0.64545090    -0.18460
C2027       C  0.90522129  0.73912436  0.63806060     0.09860
C2028       C  0.86012865  0.71174782  0.63879898    -0.07260
C2029       C  0.83813346  0.73010682  0.65025945    -0.18500
C2030       C  0.85737459  0.77346928  0.65609315     0.09890
S2031       S  0.94183138  0.72351028  0.62795986    -0.33460
S2032       S  0.82403973  0.79306827  0.66654214    -0.33470
H2033       H  0.85301958  0.82520753  0.68448402     0.27900
H2034       H  0.92431556  0.70760644  0.60183863     0.27900
H2035       H  0.95827177  0.80246009  0.64455628     0.18490
H2036       H  0.80497965  0.71156827  0.65405033     0.18500
C2037       C  0.85820129  0.64124005  0.63619248    -0.07340
C2038       C  0.87317696  0.62402552  0.61598110    -0.18460
C2039       C  0.89476117  0.60380472  0.62234482     0.09860
C2040       C  0.90435508  0.60083889  0.64978070    -0.07260
C2041       C  0.89251953  0.61909442  0.67045484    -0.18500
C2042       C  0.87016693  0.63948526  0.66429908     0.09890
S2043       S  0.90967855  0.58260602  0.59394027    -0.33460
S2044       S  0.86249782  0.66507130  0.69376225    -0.33470
H2045       H  0.82902440  0.66836692  0.68425388     0.27900
H2046       H  0.95003725  0.59589716  0.60416699     0.27900
H2047       H  0.87048427  0.62720487  0.59421673     0.18490
H2048       H  0.90109539  0.61773419  0.69167665     0.18500
C2049       C  0.78469443  0.64701706  0.99333164    -0.07340
C2050       C  0.75359711  0.63883274  0.51327905    -0.18460
C2051       C  0.71094344  0.61758346  0.50696953     0.09860
C2052       C  0.69761990  0.60822676  0.97930808    -0.07260
C2053       C  0.72799715  0.62106504  0.95876141    -0.18500
C2054       C  0.77095508  0.64095407  0.96516347     0.09890
S2055       S  0.67556110  0.60269704  0.53562175    -0.33460
S2056       S  0.80666096  0.65770077  0.93661002    -0.33470
H2057       H  0.77690811  0.63852427  0.91511322     0.27900
H2058       H  0.64818922  0.56114776  0.52560594     0.27900
H2059       H  0.76155458  0.64928664  0.53441166     0.18490
H2060       H  0.71799239  0.61604867  0.93735610     0.18500
C2061       C  0.89338090  0.80031292  0.97641622    -0.07340
C2062       C  0.90884176  0.77583382  0.96590580    -0.18460
C2063       C  0.88992498  0.73243898  0.97137877     0.09860
C2064       C  0.85446749  0.71262535  0.98965656    -0.07260
C2065       C  0.83770472  0.73772548  0.99816412    -0.18500
C2066       C  0.85629227  0.78050736  0.99177293     0.09890
S2067       S  0.91546083  0.70886255  0.95333668    -0.33460
S2068       S  0.83047768  0.80743632  0.00376384    -0.33470
H2069       H  0.83571801  0.82908627  0.97889709     0.27900
H2070       H  0.88093296  0.66858562  0.94761729     0.27900
H2071       H  0.93648934  0.79101697  0.95306479     0.18490
H2072       H  0.81053619  0.72431012  0.01134349     0.18500
C2073       C  0.85246720  0.64055131  0.99509809    -0.07340
C2074       C  0.89427878  0.65809058  0.00488528    -0.18460
C2075       C  0.91668919  0.63787921  0.00201767     0.09860
C2076       C  0.89820344  0.59866751  0.98804541    -0.07260
C2077       C  0.85651090  0.57949652  0.97901773    -0.18500
C2078       C  0.83277074  0.59852911  0.98321804     0.09890
S2079       S  0.96799655  0.66337818  0.51808821    -0.33460
S2080       S  0.77815358  0.56409647  0.97402119    -0.33470
H2081       H  0.76249309  0.56481332  0.00003713     0.27900
H2082       H  0.96182464  0.62571134  0.02986403     0.27900
H2083       H  0.91030118  0.68871349  0.51501382     0.18490
H2084       H  0.84177373  0.54850771  0.96908112     0.18500
C2085       C  0.83427983  0.66584448  0.59411685    -0.07340
C2086       C  0.85937514  0.70430151  0.57986228    -0.18460
C2087       C  0.86357184  0.70651312  0.55128601     0.09860
C2088       C  0.83643447  0.66992650  0.53475776    -0.07260
C2089       C  0.81316949  0.63117107  0.54888912    -0.18500
C2090       C  0.80968680  0.62852552  0.57742533     0.09890
S2091       S  0.90868682  0.75519780  0.53878040    -0.33460
S2092       S  0.77202704  0.57566523  0.58965463    -0.33290
H2093       H  0.79290596  0.57498455  0.61344082     0.27900
H2094       H  0.93236590  0.76797271  0.56349300     0.27900
H2095       H  0.87717295  0.73404231  0.59071663     0.18490
H2096       H  0.79493573  0.60208663  0.53714920     0.18500
loop_ 
_geom_bond_atom_site_label_1 
_geom_bond_atom_site_label_2 
_geom_bond_distance 
_geom_bond_site_symmetry_2 
_ccdc_geom_bond_type 
C1          C254   1.575       .  S
C1          C477   1.580   1_554  S
C1          C492   1.560   1_554  S
C1          C501   1.563   1_554  S
C2          C182   1.587       .  S
C2          C194   1.584       .  S
C2          C203   1.591       .  S
C2          C251   1.568       .  S
C3          C131   1.586       .  S
C3          C143   1.587       .  S
C3          C158   1.578       .  S
C3          C167   1.564       .  S
C4           C98   1.622       .  S
C4          C107   1.584       .  S
C4          C119   1.588       .  S
C4          C170   1.562       .  S
N5            N6   1.316       .  A
N5           N11   1.313       .  A
N5        Mn1082   2.180       .  S
N6           C13   1.350       .  A
N7            N8   1.323       .  A
N7         N1581   1.318       .  A
N7         Mn285   2.219   1_554  S
N8           C14   1.354       .  A
N9           N10   1.325       .  A
N9         N1579   1.318   1_445  A
N9         Mn296   2.221   1_554  S
N10        C1586   1.355       .  A
N11          N12   1.319       .  A
N11        Mn547   2.190   1_545  S
N12          C13   1.353       .  A
C13         C242   1.473       .  S
C14        N1582   1.355       .  A
C14          C69   1.482       .  S
N15          N21   1.316       .  A
N15          N16   1.316       .  A
N15         Mn45   2.186       .  S
N16          C24   1.348       .  A
N17          N18   1.317       .  A
N17          N19   1.320       .  A
N17         Mn23   2.194       .  S
N18          C25   1.346       .  A
N19          N20   1.325       .  A
N19         Mn45   2.231       .  S
N20          C25   1.358       .  A
N21          N22   1.319       .  A
N21         Mn23   2.188       .  S
N22          C24   1.352       .  A
Mn23        N269   2.219       .  S
Mn23        N535   2.190       .  S
Mn23       Cl571   2.541       .  S
C24         C227   1.469       .  S
C25         C155   1.473       .  S
N26          N27   1.319       .  A
N26          N32   1.314       .  A
N26         Mn34   2.192       .  S
N27          C35   1.354       .  A
N28          N30   1.317       .  A
N28          N29   1.319       .  A
N28         Mn46   2.210       .  S
N29          C36   1.356       .  A
N30          N31   1.321       .  A
N30         Mn34   2.201       .  S
N31          C36   1.351       .  A
N32          N33   1.317       .  A
N32         Mn46   2.188       .  S
N33          C35   1.351       .  A
Mn34       N1053   2.180   1_455  S
Mn34        N271   2.221       .  S
Mn34      Cl1095   2.551   1_455  S
C35         C218   1.479       .  S
C36         C134   1.478       .  S
N37          N38   1.327       .  A
N37        N1615   1.317       .  A
N37         Mn45   2.231       .  S
N38         C572   1.358       .  A
N39          N40   1.321       .  A
N39          N41   1.316       .  A
N39        Mn570   2.204       .  S
N40          C49   1.353       .  A
N41          N42   1.323       .  A
N41       Mn1093   2.218   1_455  S
N42          C49   1.355       .  A
N43          N44   1.324       .  A
N43        N1609   1.317   1_445  A
N43         Mn46   2.212       .  S
N44        C1096   1.353   1_455  A
Mn45       N1089   2.218       .  S
Mn45       Cl571   2.550       .  S
Mn46        N563   2.204   1_545  S
Mn46      Cl1095   2.540   1_455  S
Cl47       Mn547   2.541   1_545  S
Cl47      Mn1082   2.551       .  S
Cl47       Mn569   2.550   1_545  S
Cl47      Mn1094   2.540       .  S
C48         N562   1.358   1_545  A
C48        N1092   1.353       .  A
C48          C81   1.487       .  S
C49         C146   1.475       .  S
N50          N51   1.320       .  A
N50          N56   1.314       .  A
N50         Mn79   2.202       .  S
N51          C58   1.357       .  A
N52          N54   1.318       .  A
N52          N53   1.323       .  A
N52         Mn68   2.214       .  S
N53          C59   1.356       .  A
N54          N55   1.317       .  A
N54         Mn79   2.194       .  S
N55          C59   1.347       .  A
N56          N57   1.315       .  A
N56         Mn68   2.173       .  S
N57          C58   1.345       .  A
C58         C122   1.475       .  S
C59         C191   1.467       .  S
N60          N61   1.325       .  A
N60        N1638   1.316   1_445  A
N60         Mn90   2.223       .  S
N61        C1641   1.355       .  A
N62          N63   1.321       .  A
N62          N64   1.316       .  A
N62        Mn592   2.207   1_545  S
N63          C70   1.353       .  A
N64          N65   1.322       .  A
N64       Mn1138   2.210       .  S
N65          C70   1.354       .  A
N66          N67   1.323       .  A
N66        N1632   1.316       .  A
N66         Mn68   2.209       .  S
N67          C69   1.353       .  A
Mn68        N586   2.207       .  S
Mn68       Cl616   2.550       .  S
C69        N1633   1.355       .  A
C70         C206   1.473       .  S
N71          N72   1.322       .  A
N71          N77   1.313       .  A
N71       Mn1127   2.189   1_455  S
N72          C80   1.353       .  A
N73          N74   1.325       .  A
N73        N1647   1.319   1_445  A
N73         Mn91   2.235       .  S
N74        C1129   1.357   1_455  A
N75          N76   1.325       .  A
N75        N1645   1.319       .  A
N75         Mn79   2.220       .  S
N76         C605   1.354       .  A
N77          N78   1.316       .  A
N77        Mn615   2.199       .  S
N78          C80   1.355       .  A
Mn79       N1119   2.189       .  S
Mn79       Cl616   2.549       .  S
C80         C110   1.488       .  S
C81        N1122   1.357       .  A
C81         N600   1.354   1_545  A
N82          N83   1.318       .  A
N82          N88   1.316       .  A
N82         Mn90   2.193       .  S
N83          C93   1.350       .  A
N84          N85   1.321       .  A
N84          N86   1.317       .  A
N84         Mn91   2.215       .  S
N85          C94   1.353       .  A
N86          N87   1.321       .  A
N86         Mn90   2.213       .  S
N87          C94   1.357       .  A
N88          N89   1.322       .  A
N88         Mn91   2.209       .  S
N89          C93   1.356       .  A
Mn90       N1112   2.210   1_455  S
Mn90      Cl1140   2.548       .  S
Mn91        N601   2.199   1_545  S
Mn91      Cl1140   2.547       .  S
Cl92       Mn592   2.550   1_545  S
Cl92       Mn603   2.549   1_545  S
Cl92      Mn1138   2.548       .  S
Cl92      Mn1139   2.547       .  S
C93          C95   1.483       .  S
C94         C179   1.493       .  S
C95          C96   1.396       .  A
C95         C100   1.394       .  A
C96          C97   1.408       .  A
C96         H105   1.085       .  S
C97          C98   1.450       .  A
C97         S101   1.801       .  S
C98          C99   1.442       .  A
C99         C100   1.393       .  A
C99         H106   1.072       .  S
C100        S102   1.807       .  S
S101        H104   1.394       .  S
S102        H103   1.408       .  S
C107        C108   1.425       .  A
C107        C112   1.443       .  A
C108        C109   1.404       .  A
C108        H117   1.081       .  S
C109        C110   1.409       .  A
C109        S113   1.801       .  S
C110        C111   1.392       .  A
C111        C112   1.395       .  A
C111        H118   1.083       .  S
C112        S114   1.807       .  S
S113        H116   1.408       .  S
S114        H115   1.407       .  S
C119        C120   1.405       .  A
C119        C124   1.449       .  A
C120        C121   1.396       .  A
C120        H129   1.066       .  S
C121        C122   1.411       .  A
C121        S125   1.800       .  S
C122        C123   1.390       .  A
C123        C124   1.393       .  A
C123        H130   1.085       .  S
C124        S126   1.816       .  S
S125        H128   1.408       .  S
S126        H127   1.398       .  S
C131        C132   1.422       .  A
C131        C136   1.447       .  A
C132        C133   1.407       .  A
C132        H141   1.077       .  S
C133        C134   1.407       .  A
C133        S137   1.803       .  S
C134        C135   1.387       .  A
C135        C136   1.393       .  A
C135        H142   1.084       .  S
C136        S138   1.809       .  S
S137        H140   1.406   1_455  S
S138        H139   1.408       .  S
C143        C144   1.423       .  A
C143        C148   1.430       .  A
C144        C145   1.389       .  A
C144        H153   1.074       .  S
C145        C146   1.398       .  A
C145        S149   1.807       .  S
C146        C147   1.404       .  A
C147        C148   1.413       .  A
C147        H154   1.083       .  S
C148        S150   1.798       .  S
S149        H152   1.405       .  S
S150        H151   1.407       .  S
C155        C156   1.391       .  A
C155        C160   1.408       .  A
C156        C157   1.400       .  A
C156        H165   1.085       .  S
C157        C158   1.437       .  A
C157        S161   1.796       .  S
C158        C159   1.417       .  A
C159        C160   1.401       .  A
C159        H166   1.080       .  S
C160        S162   1.804       .  S
S161        H164   1.388       .  S
S162        H163   1.406       .  S
C167        C168   1.407       .  A
C167        C172   1.426       .  A
C168        C169   1.391       .  A
C168        H177   1.077       .  S
C169        C170   1.432       .  A
C169        S173   1.819       .  S
C170        C171   1.418       .  A
C171        C172   1.398       .  A
C171        H178   1.075       .  S
C172        S174   1.801       .  S
S173        H176   1.397       .  S
S174        H175   1.407       .  S
C179        C180   1.396       .  A
C179        C184   1.410       .  A
C180        C181   1.400       .  A
C180        H189   1.084       .  S
C181        C182   1.448       .  A
C181        S185   1.815       .  S
C182        C183   1.419       .  A
C183        C184   1.404       .  A
C183        H190   1.076       .  S
C184        S186   1.799       .  S
S185        H188   1.394       .  S
S186        H187   1.408       .  S
C191        C192   1.393       .  A
C191        C196   1.402       .  A
C192        C193   1.402       .  A
C192        H201   1.085       .  S
C193        C194   1.444       .  A
C193        S197   1.807       .  S
C194        C195   1.422       .  A
C195        C196   1.395       .  A
C195        H202   1.075       .  S
C196        S198   1.808       .  S
S197        H200   1.398       .  S
S198        H199   1.404       .  S
C203        C204   1.431       .  A
C203        C208   1.442       .  A
C204        C205   1.386       .  A
C204        H213   1.071       .  S
C205        C206   1.394       .  A
C205        S209   1.809       .  S
C206        C207   1.401       .  A
C207        C208   1.414       .  A
C207        H214   1.084       .  S
C208        S210   1.813       .  S
S209        H212   1.405       .  S
S210        H211   1.392       .  S
C215        C263   1.580       .  S
C215        C220   1.430       .  A
C215        C478   1.424       .  A
C216        C217   1.391       .  A
C216        C477   1.424   1_554  A
C216        H225   1.076       .  S
C217        C480   1.404   1_554  A
C217        S221   1.804       .  S
C218        C219   1.401       .  A
C218        C479   1.404       .  A
C219        C220   1.404       .  A
C219        H226   1.082       .  S
C220        S222   1.803       .  S
S221        H224   1.408       .  S
S222        H223   1.406       .  S
C227        C228   1.396       .  A
C227        C232   1.404       .  A
C228        C229   1.399       .  A
C228        H237   1.085       .  S
C229        C230   1.445       .  A
C229        S233   1.815       .  S
C230        C263   1.560       .  S
C230        C231   1.421       .  A
C231        C232   1.390       .  A
C231        H238   1.082       .  S
C232        S234   1.803       .  S
S233        H236   1.393       .  S
S234        H235   1.406       .  S
C239        C263   1.563       .  S
C239        C240   1.419       .  A
C239        C244   1.439       .  A
C240        C241   1.387       .  A
C240        H511   1.077       .  S
C241        C242   1.403       .  A
C241        S507   1.804       .  S
C242        C243   1.398       .  A
C243        C244   1.402       .  A
C243        H250   1.084       .  S
C244        S246   1.804       .  S
S245        C503   1.804       .  S
S245        H510   1.408       .  S
S246        H247   1.400       .  S
H248        S507   1.408       .  S
H249        C502   1.077       .  S
C251        C252   1.414       .  A
C251        C256   1.433       .  A
C252        C253   1.393       .  A
C252        H261   1.073       .  S
C253        C254   1.429       .  A
C253        S257   1.817       .  S
C254        C255   1.410       .  A
C255        C256   1.389       .  A
C255        H262   1.079       .  S
C256        S258   1.815       .  S
S257        H260   1.408       .  S
S258        H259   1.394       .  S
C263        C516   1.575       .  S
C264        C444   1.587       .  S
C264        C456   1.584       .  S
C264        C465   1.591       .  S
C264        C513   1.568       .  S
C265        C393   1.586       .  S
C265        C405   1.587       .  S
C265        C420   1.578       .  S
C265        C429   1.564       .  S
C266        C360   1.622       .  S
C266        C369   1.584       .  S
C266        C381   1.588       .  S
C266        C432   1.562       .  S
N267        N268   1.316       .  A
N267        N273   1.313       .  A
N267      Mn1344   2.180       .  S
N268        C275   1.350       .  A
N269       N1843   1.318       .  A
N269        N270   1.323       .  A
N270        C276   1.354       .  A
N271       N1841   1.318   1_445  A
N271        N272   1.325       .  A
N272       C1848   1.355       .  A
N273        N274   1.319       .  A
N273       Mn809   2.190   1_545  S
N274        C275   1.353       .  A
C275        C504   1.473       .  S
C276       N1844   1.355       .  A
C276        C331   1.482       .  S
N277        N283   1.316       .  A
N277        N278   1.316       .  A
N277       Mn307   2.186       .  S
N278        C286   1.348       .  A
N279        N280   1.317       .  A
N279        N281   1.320       .  A
N279       Mn285   2.194       .  S
N280        C287   1.346       .  A
N281        N282   1.325       .  A
N281       Mn307   2.231       .  S
N282        C287   1.358       .  A
N283        N284   1.319       .  A
N283       Mn285   2.188       .  S
N284        C286   1.352       .  A
Mn285       N797   2.190       .  S
Mn285      Cl833   2.541       .  S
C286        C489   1.469       .  S
C287        C417   1.473       .  S
N288        N289   1.319       .  A
N288        N294   1.314       .  A
N288       Mn296   2.192       .  S
N289        C297   1.354       .  A
N290        N292   1.317       .  A
N290        N291   1.319       .  A
N290       Mn308   2.210       .  S
N291        C298   1.356       .  A
N292        N293   1.321       .  A
N292       Mn296   2.201       .  S
N293        C298   1.351       .  A
N294        N295   1.317       .  A
N294       Mn308   2.188       .  S
N295        C297   1.351       .  A
Mn296      N1315   2.180   1_455  S
Mn296     Cl1357   2.551   1_455  S
C297        C480   1.479       .  S
C298        C396   1.478       .  S
N299        N300   1.327       .  A
N299       N1877   1.317       .  A
N299       Mn307   2.231       .  S
N300        C834   1.358       .  A
N301        N302   1.321       .  A
N301        N303   1.316       .  A
N301       Mn832   2.204       .  S
N302        C311   1.353       .  A
N303        N304   1.323       .  A
N303      Mn1355   2.218   1_455  S
N304        C311   1.355       .  A
N305       N1871   1.317   1_445  A
N305        N306   1.324       .  A
N305       Mn308   2.212       .  S
N306       C1358   1.353   1_455  A
Mn307      N1351   2.218       .  S
Mn307      Cl833   2.550       .  S
Mn308       N825   2.204   1_545  S
Mn308     Cl1357   2.540   1_455  S
Cl309      Mn809   2.541   1_545  S
Cl309     Mn1344   2.551       .  S
Cl309      Mn831   2.550   1_545  S
Cl309     Mn1356   2.540       .  S
C310        N824   1.358   1_545  A
C310       N1354   1.353       .  A
C310        C343   1.487       .  S
C311        C408   1.475       .  S
N312        N313   1.320       .  A
N312        N318   1.314       .  A
N312       Mn341   2.202       .  S
N313        C320   1.357       .  A
N314        N316   1.318       .  A
N314        N315   1.323       .  A
N314       Mn330   2.214       .  S
N315        C321   1.356       .  A
N316        N317   1.317       .  A
N316       Mn341   2.194       .  S
N317        C321   1.347       .  A
N318        N319   1.315       .  A
N318       Mn330   2.173       .  S
N319        C320   1.345       .  A
C320        C384   1.475       .  S
C321        C453   1.467       .  S
N322       N1900   1.316   1_445  A
N322        N323   1.325       .  A
N322       Mn352   2.223       .  S
N323       C1903   1.355       .  A
N324        N325   1.321       .  A
N324        N326   1.316       .  A
N324       Mn854   2.207   1_545  S
N325        C332   1.353       .  A
N326        N327   1.322       .  A
N326      Mn1400   2.210       .  S
N327        C332   1.354       .  A
N328       N1894   1.316       .  A
N328        N329   1.323       .  A
N328       Mn330   2.209       .  S
N329        C331   1.353       .  A
Mn330       N848   2.207       .  S
Mn330      Cl878   2.550       .  S
C331       N1895   1.355       .  A
C332        C468   1.473       .  S
N333        N334   1.322       .  A
N333        N339   1.313       .  A
N333      Mn1389   2.189   1_455  S
N334        C342   1.353       .  A
N335       N1909   1.319   1_445  A
N335        N336   1.325       .  A
N335       Mn353   2.235       .  S
N336       C1391   1.357   1_455  A
N337       N1907   1.319       .  A
N337        N338   1.325       .  A
N337       Mn341   2.220       .  S
N338        C867   1.354       .  A
N339        N340   1.316       .  A
N339       Mn877   2.199       .  S
N340        C342   1.355       .  A
Mn341      N1381   2.189       .  S
Mn341      Cl878   2.549       .  S
C342        C372   1.488       .  S
C343       N1384   1.357       .  A
C343        N862   1.354   1_545  A
N344        N345   1.318       .  A
N344        N350   1.316       .  A
N344       Mn352   2.193       .  S
N345        C355   1.350       .  A
N346        N347   1.321       .  A
N346        N348   1.317       .  A
N346       Mn353   2.215       .  S
N347        C356   1.353       .  A
N348        N349   1.321       .  A
N348       Mn352   2.213       .  S
N349        C356   1.357       .  A
N350        N351   1.322       .  A
N350       Mn353   2.209       .  S
N351        C355   1.356       .  A
Mn352      N1374   2.210   1_455  S
Mn352     Cl1402   2.548       .  S
Mn353       N863   2.199   1_545  S
Mn353     Cl1402   2.547       .  S
Cl354      Mn854   2.550   1_545  S
Cl354      Mn865   2.549   1_545  S
Cl354     Mn1400   2.548       .  S
Cl354     Mn1401   2.547       .  S
C355        C357   1.483       .  S
C356        C441   1.493       .  S
C357        C358   1.396       .  A
C357        C362   1.394       .  A
C358        C359   1.408       .  A
C358        H367   1.085       .  S
C359        C360   1.450       .  A
C359        S363   1.801       .  S
C360        C361   1.442       .  A
C361        C362   1.393       .  A
C361        H368   1.072       .  S
C362        S364   1.807       .  S
S363        H366   1.394       .  S
S364        H365   1.408       .  S
C369        C370   1.425       .  A
C369        C374   1.443       .  A
C370        C371   1.404       .  A
C370        H379   1.081       .  S
C371        C372   1.409       .  A
C371        S375   1.801       .  S
C372        C373   1.392       .  A
C373        C374   1.395       .  A
C373        H380   1.083       .  S
C374        S376   1.807       .  S
S375        H378   1.408       .  S
S376        H377   1.407       .  S
C381        C382   1.405       .  A
C381        C386   1.449       .  A
C382        C383   1.396       .  A
C382        H391   1.066       .  S
C383        C384   1.411       .  A
C383        S387   1.800       .  S
C384        C385   1.390       .  A
C385        C386   1.393       .  A
C385        H392   1.085       .  S
C386        S388   1.816       .  S
S387        H390   1.408       .  S
S388        H389   1.398       .  S
C393        C394   1.422       .  A
C393        C398   1.447       .  A
C394        C395   1.407       .  A
C394        H403   1.077       .  S
C395        C396   1.407       .  A
C395        S399   1.803       .  S
C396        C397   1.387       .  A
C397        C398   1.393       .  A
C397        H404   1.084       .  S
C398        S400   1.809       .  S
S399        H402   1.406   1_455  S
S400        H401   1.408       .  S
C405        C406   1.423       .  A
C405        C410   1.430       .  A
C406        C407   1.389       .  A
C406        H415   1.074       .  S
C407        C408   1.398       .  A
C407        S411   1.807       .  S
C408        C409   1.404       .  A
C409        C410   1.413       .  A
C409        H416   1.083       .  S
C410        S412   1.798       .  S
S411        H414   1.405       .  S
S412        H413   1.407       .  S
C417        C418   1.391       .  A
C417        C422   1.408       .  A
C418        C419   1.400       .  A
C418        H427   1.085       .  S
C419        C420   1.437       .  A
C419        S423   1.796       .  S
C420        C421   1.417       .  A
C421        C422   1.401       .  A
C421        H428   1.080       .  S
C422        S424   1.804       .  S
S423        H426   1.388       .  S
S424        H425   1.406       .  S
C429        C430   1.407       .  A
C429        C434   1.426       .  A
C430        C431   1.391       .  A
C430        H439   1.077       .  S
C431        C432   1.432       .  A
C431        S435   1.819       .  S
C432        C433   1.418       .  A
C433        C434   1.398       .  A
C433        H440   1.075       .  S
C434        S436   1.801       .  S
S435        H438   1.397       .  S
S436        H437   1.407       .  S
C441        C442   1.396       .  A
C441        C446   1.410       .  A
C442        C443   1.400       .  A
C442        H451   1.084       .  S
C443        C444   1.448       .  A
C443        S447   1.815       .  S
C444        C445   1.419       .  A
C445        C446   1.404       .  A
C445        H452   1.076       .  S
C446        S448   1.799       .  S
S447        H450   1.394       .  S
S448        H449   1.408       .  S
C453        C454   1.393       .  A
C453        C458   1.402       .  A
C454        C455   1.402       .  A
C454        H463   1.085       .  S
C455        C456   1.444       .  A
C455        S459   1.807       .  S
C456        C457   1.422       .  A
C457        C458   1.395       .  A
C457        H464   1.075       .  S
C458        S460   1.808       .  S
S459        H462   1.398       .  S
S460        H461   1.404       .  S
C465        C466   1.431       .  A
C465        C470   1.442       .  A
C466        C467   1.386       .  A
C466        H475   1.071       .  S
C467        C468   1.394       .  A
C467        S471   1.809       .  S
C468        C469   1.401       .  A
C469        C470   1.414       .  A
C469        H476   1.084       .  S
C470        S472   1.813       .  S
S471        H474   1.405       .  S
S472        H473   1.392       .  S
C477        C482   1.430       .  A
C478        C479   1.391       .  A
C478        H487   1.076       .  S
C479        S483   1.804       .  S
C480        C481   1.401       .  A
C481        C482   1.404       .  A
C481        H488   1.082       .  S
C482        S484   1.803       .  S
S483        H486   1.408       .  S
S484        H485   1.406       .  S
C489        C490   1.396       .  A
C489        C494   1.404       .  A
C490        C491   1.399       .  A
C490        H499   1.085       .  S
C491        C492   1.445       .  A
C491        S495   1.815       .  S
C492        C493   1.421       .  A
C493        C494   1.390       .  A
C493        H500   1.082   1_556  S
C494        S496   1.803   1_556  S
S495        H498   1.393       .  S
S496        H497   1.406   1_554  S
C501        C502   1.419   1_556  A
C501        C506   1.439       .  A
C502        C503   1.387       .  A
C503        C504   1.403   1_554  A
C504        C505   1.398       .  A
C505        C506   1.402       .  A
C505        H512   1.084       .  S
C506        S508   1.804       .  S
S508        H509   1.400   1_556  S
C513        C514   1.414       .  A
C513        C518   1.433       .  A
C514        C515   1.393       .  A
C514        H523   1.073       .  S
C515        C516   1.429       .  A
C515        S519   1.817       .  S
C516        C517   1.410       .  A
C517        C518   1.389       .  A
C517        H524   1.079       .  S
C518        S520   1.815       .  S
S519        H522   1.408       .  S
S520        H521   1.394       .  S
C525       C1001   1.580   1_554  S
C525       C1016   1.560   1_554  S
C525       C1025   1.563   1_554  S
C525        C778   1.575       .  S
C526        C706   1.587       .  S
C526        C718   1.584       .  S
C526        C727   1.591       .  S
C526        C775   1.568       .  S
C527        C655   1.586       .  S
C527        C667   1.587       .  S
C527        C682   1.578       .  S
C527        C691   1.564       .  S
C528        C622   1.622       .  S
C528        C631   1.584       .  S
C528        C643   1.588       .  S
C528        C694   1.562       .  S
N529        N530   1.316       .  A
N529        N535   1.313       .  A
N529      Mn1606   2.180       .  S
N530        C537   1.350       .  A
N531       N1057   1.318   1_565  A
N531        N532   1.323       .  A
N531       Mn809   2.219   1_554  S
N532        C538   1.354   1_565  A
N533       N1055   1.318   1_455  A
N533        N534   1.325       .  A
N533       Mn820   2.221   1_554  S
N534       C1062   1.355       .  A
N535        N536   1.319       .  A
N536        C537   1.353       .  A
C537        C766   1.473       .  S
C538       N1058   1.355       .  A
C538        C593   1.482       .  S
N539        N545   1.316       .  A
N539        N540   1.316       .  A
N539       Mn569   2.186       .  S
N540        C548   1.348       .  A
N541        N542   1.317       .  A
N541        N543   1.320       .  A
N541       Mn547   2.194       .  S
N542        C549   1.346       .  A
N543        N544   1.325       .  A
N543       Mn569   2.231       .  S
N544        C549   1.358       .  A
N545        N546   1.319       .  A
N545       Mn547   2.188       .  S
N546        C548   1.352       .  A
Mn547       N793   2.219       .  S
C548        C751   1.469       .  S
C549        C679   1.473       .  S
N550        N551   1.319       .  A
N550        N556   1.314       .  A
N550       Mn558   2.192       .  S
N551        C559   1.354       .  A
N552        N554   1.317       .  A
N552        N553   1.319       .  A
N552       Mn570   2.210       .  S
N553        C560   1.356       .  A
N554        N555   1.321       .  A
N554       Mn558   2.201       .  S
N555        C560   1.351       .  A
N556        N557   1.317       .  A
N556       Mn570   2.188       .  S
N557        C559   1.351       .  A
Mn558      N1577   2.180   1_455  S
Mn558       N795   2.221       .  S
Mn558     Cl1619   2.551   1_455  S
C559        C742   1.479       .  S
C560        C658   1.478       .  S
N561        N562   1.327       .  A
N561       N1091   1.317   1_565  A
N561       Mn569   2.231       .  S
N563        N564   1.321       .  A
N563        N565   1.316       .  A
N564        C573   1.353       .  A
N565        N566   1.323       .  A
N565      Mn1617   2.218   1_455  S
N566        C573   1.355       .  A
N567       N1085   1.317   1_455  A
N567        N568   1.324       .  A
N567       Mn570   2.212       .  S
N568       C1620   1.353   1_455  A
Mn569      N1613   2.218       .  S
Mn570     Cl1619   2.540   1_455  S
Cl571     Mn1606   2.551       .  S
Cl571     Mn1618   2.540       .  S
C572       N1616   1.353       .  A
C572        C605   1.487       .  S
C573        C670   1.475       .  S
N574        N575   1.320       .  A
N574        N580   1.314       .  A
N574       Mn603   2.202       .  S
N575        C582   1.357       .  A
N576        N578   1.318       .  A
N576        N577   1.323       .  A
N576       Mn592   2.214       .  S
N577        C583   1.356       .  A
N578        N579   1.317       .  A
N578       Mn603   2.194       .  S
N579        C583   1.347       .  A
N580        N581   1.315       .  A
N580       Mn592   2.173       .  S
N581        C582   1.345       .  A
C582        C646   1.475       .  S
C583        C715   1.467       .  S
N584       N1114   1.316   1_455  A
N584        N585   1.325       .  A
N584       Mn614   2.223       .  S
N585       C1117   1.355       .  A
N586        N587   1.321       .  A
N586        N588   1.316       .  A
N587        C594   1.353       .  A
N588        N589   1.322       .  A
N588      Mn1662   2.210       .  S
N589        C594   1.354       .  A
N590       N1108   1.316   1_565  A
N590        N591   1.323       .  A
N590       Mn592   2.209       .  S
N591        C593   1.353   1_565  A
C593       N1109   1.355       .  A
C594        C730   1.473       .  S
N595        N596   1.322       .  A
N595        N601   1.313       .  A
N595      Mn1651   2.189   1_455  S
N596        C604   1.353       .  A
N597       N1123   1.319   1_455  A
N597        N598   1.325       .  A
N597       Mn615   2.235       .  S
N598       C1653   1.357   1_455  A
N599       N1121   1.319   1_565  A
N599        N600   1.325       .  A
N599       Mn603   2.220       .  S
N601        N602   1.316       .  A
N602        C604   1.355       .  A
Mn603      N1643   2.189       .  S
C604        C634   1.488       .  S
C605       N1646   1.357       .  A
N606        N607   1.318       .  A
N606        N612   1.316       .  A
N606       Mn614   2.193       .  S
N607        C617   1.350       .  A
N608        N609   1.321       .  A
N608        N610   1.317       .  A
N608       Mn615   2.215       .  S
N609        C618   1.353       .  A
N610        N611   1.321       .  A
N610       Mn614   2.213       .  S
N611        C618   1.357       .  A
N612        N613   1.322       .  A
N612       Mn615   2.209       .  S
N613        C617   1.356       .  A
Mn614      N1636   2.210   1_455  S
Mn614     Cl1664   2.548       .  S
Mn615     Cl1664   2.547       .  S
Cl616     Mn1662   2.548       .  S
Cl616     Mn1663   2.547       .  S
C617        C619   1.483       .  S
C618        C703   1.493       .  S
C619        C620   1.396       .  A
C619        C624   1.394       .  A
C620        C621   1.408       .  A
C620        H629   1.085       .  S
C621        C622   1.450       .  A
C621        S625   1.801       .  S
C622        C623   1.442       .  A
C623        C624   1.393       .  A
C623        H630   1.072       .  S
C624        S626   1.807       .  S
S625        H628   1.394       .  S
S626        H627   1.408       .  S
C631        C632   1.425       .  A
C631        C636   1.443       .  A
C632        C633   1.404       .  A
C632        H641   1.081       .  S
C633        C634   1.409       .  A
C633        S637   1.801       .  S
C634        C635   1.392       .  A
C635        C636   1.395       .  A
C635        H642   1.083       .  S
C636        S638   1.807       .  S
S637        H640   1.408       .  S
S638        H639   1.407       .  S
C643        C644   1.405       .  A
C643        C648   1.449       .  A
C644        C645   1.396       .  A
C644        H653   1.066       .  S
C645        C646   1.411       .  A
C645        S649   1.800       .  S
C646        C647   1.390       .  A
C647        C648   1.393       .  A
C647        H654   1.085       .  S
C648        S650   1.816       .  S
S649        H652   1.408       .  S
S650        H651   1.398       .  S
C655        C656   1.422       .  A
C655        C660   1.447       .  A
C656        C657   1.407       .  A
C656        H665   1.077       .  S
C657        C658   1.407       .  A
C657        S661   1.803       .  S
C658        C659   1.387       .  A
C659        C660   1.393       .  A
C659        H666   1.084       .  S
C660        S662   1.809       .  S
S661        H664   1.406   1_455  S
S662        H663   1.408       .  S
C667        C668   1.423       .  A
C667        C672   1.430       .  A
C668        C669   1.389       .  A
C668        H677   1.074       .  S
C669        C670   1.398       .  A
C669        S673   1.807       .  S
C670        C671   1.404       .  A
C671        C672   1.413       .  A
C671        H678   1.083       .  S
C672        S674   1.798       .  S
S673        H676   1.405       .  S
S674        H675   1.407       .  S
C679        C680   1.391       .  A
C679        C684   1.408       .  A
C680        C681   1.400       .  A
C680        H689   1.085       .  S
C681        C682   1.437       .  A
C681        S685   1.796       .  S
C682        C683   1.417       .  A
C683        C684   1.401       .  A
C683        H690   1.080       .  S
C684        S686   1.804       .  S
S685        H688   1.388       .  S
S686        H687   1.406       .  S
C691        C692   1.407       .  A
C691        C696   1.426       .  A
C692        C693   1.391       .  A
C692        H701   1.077       .  S
C693        C694   1.432       .  A
C693        S697   1.819       .  S
C694        C695   1.418       .  A
C695        C696   1.398       .  A
C695        H702   1.075       .  S
C696        S698   1.801       .  S
S697        H700   1.397       .  S
S698        H699   1.407       .  S
C703        C704   1.396       .  A
C703        C708   1.410       .  A
C704        C705   1.400       .  A
C704        H713   1.084       .  S
C705        C706   1.448       .  A
C705        S709   1.815       .  S
C706        C707   1.419       .  A
C707        C708   1.404       .  A
C707        H714   1.076       .  S
C708        S710   1.799       .  S
S709        H712   1.394       .  S
S710        H711   1.408       .  S
C715        C716   1.393       .  A
C715        C720   1.402       .  A
C716        C717   1.402       .  A
C716        H725   1.085       .  S
C717        C718   1.444       .  A
C717        S721   1.807       .  S
C718        C719   1.422       .  A
C719        C720   1.395       .  A
C719        H726   1.075       .  S
C720        S722   1.808       .  S
S721        H724   1.398       .  S
S722        H723   1.404       .  S
C727        C728   1.431       .  A
C727        C732   1.442       .  A
C728        C729   1.386       .  A
C728        H737   1.071       .  S
C729        C730   1.394       .  A
C729        S733   1.809       .  S
C730        C731   1.401       .  A
C731        C732   1.414       .  A
C731        H738   1.084       .  S
C732        S734   1.813       .  S
S733        H736   1.405       .  S
S734        H735   1.392       .  S
C739        C787   1.580       .  S
C739       C1002   1.424       .  A
C739        C744   1.430       .  A
C740       C1001   1.424   1_554  A
C740        C741   1.391       .  A
C740        H749   1.076       .  S
C741       C1004   1.404   1_554  A
C741        S745   1.804       .  S
C742       C1003   1.404       .  A
C742        C743   1.401       .  A
C743        C744   1.404       .  A
C743        H750   1.082       .  S
C744        S746   1.803       .  S
S745        H748   1.408       .  S
S746        H747   1.406       .  S
C751        C752   1.396       .  A
C751        C756   1.404       .  A
C752        C753   1.399       .  A
C752        H761   1.085       .  S
C753        C754   1.445       .  A
C753        S757   1.815       .  S
C754        C787   1.560       .  S
C754        C755   1.421       .  A
C755        C756   1.390       .  A
C755        H762   1.082       .  S
C756        S758   1.803       .  S
S757        H760   1.393       .  S
S758        H759   1.406       .  S
C763        C787   1.563       .  S
C763        C764   1.419       .  A
C763        C768   1.439       .  A
C764        C765   1.387       .  A
C764       H1035   1.077       .  S
C765        C766   1.403       .  A
C765       S1031   1.804       .  S
C766        C767   1.398       .  A
C767        C768   1.402       .  A
C767        H774   1.084       .  S
C768        S770   1.804       .  S
S769       C1027   1.804       .  S
S769       H1034   1.408       .  S
S770        H771   1.400       .  S
H772       S1031   1.408       .  S
H773       C1026   1.077       .  S
C775        C776   1.414       .  A
C775        C780   1.433       .  A
C776        C777   1.393       .  A
C776        H785   1.073       .  S
C777        C778   1.429       .  A
C777        S781   1.817       .  S
C778        C779   1.410       .  A
C779        C780   1.389       .  A
C779        H786   1.079       .  S
C780        S782   1.815       .  S
S781        H784   1.408       .  S
S782        H783   1.394       .  S
C787       C1040   1.575       .  S
C788        C968   1.587       .  S
C788        C980   1.584       .  S
C788        C989   1.591       .  S
C788       C1037   1.568       .  S
C789        C917   1.586       .  S
C789        C929   1.587       .  S
C789        C944   1.578       .  S
C789        C953   1.564       .  S
C790        C884   1.622       .  S
C790        C893   1.584       .  S
C790        C905   1.588       .  S
C790        C956   1.562       .  S
N791        N792   1.316       .  A
N791        N797   1.313       .  A
N791      Mn1868   2.180       .  S
N792        C799   1.350       .  A
N793       N1319   1.318   1_565  A
N793        N794   1.323       .  A
N794        C800   1.354   1_565  A
N795       N1317   1.318   1_455  A
N795        N796   1.325       .  A
N796       C1324   1.355       .  A
N797        N798   1.319       .  A
N798        C799   1.353       .  A
C799       C1028   1.473       .  S
C800       N1320   1.355       .  A
C800        C855   1.482       .  S
N801        N807   1.316       .  A
N801        N802   1.316       .  A
N801       Mn831   2.186       .  S
N802        C810   1.348       .  A
N803        N804   1.317       .  A
N803        N805   1.320       .  A
N803       Mn809   2.194       .  S
N804        C811   1.346       .  A
N805        N806   1.325       .  A
N805       Mn831   2.231       .  S
N806        C811   1.358       .  A
N807        N808   1.319       .  A
N807       Mn809   2.188       .  S
N808        C810   1.352       .  A
C810       C1013   1.469       .  S
C811        C941   1.473       .  S
N812        N813   1.319       .  A
N812        N818   1.314       .  A
N812       Mn820   2.192       .  S
N813        C821   1.354       .  A
N814        N816   1.317       .  A
N814        N815   1.319       .  A
N814       Mn832   2.210       .  S
N815        C822   1.356       .  A
N816        N817   1.321       .  A
N816       Mn820   2.201       .  S
N817        C822   1.351       .  A
N818        N819   1.317       .  A
N818       Mn832   2.188       .  S
N819        C821   1.351       .  A
Mn820      N1839   2.180   1_455  S
Mn820     Cl1881   2.551   1_455  S
C821       C1004   1.479       .  S
C822        C920   1.478       .  S
N823        N824   1.327       .  A
N823       N1353   1.317   1_565  A
N823       Mn831   2.231       .  S
N825        N826   1.321       .  A
N825        N827   1.316       .  A
N826        C835   1.353       .  A
N827        N828   1.323       .  A
N827      Mn1879   2.218   1_455  S
N828        C835   1.355       .  A
N829       N1347   1.317   1_455  A
N829        N830   1.324       .  A
N829       Mn832   2.212       .  S
N830       C1882   1.353   1_455  A
Mn831      N1875   2.218       .  S
Mn832     Cl1881   2.540   1_455  S
Cl833     Mn1868   2.551       .  S
Cl833     Mn1880   2.540       .  S
C834       N1878   1.353       .  A
C834        C867   1.487       .  S
C835        C932   1.475       .  S
N836        N837   1.320       .  A
N836        N842   1.314       .  A
N836       Mn865   2.202       .  S
N837        C844   1.357       .  A
N838        N840   1.318       .  A
N838        N839   1.323       .  A
N838       Mn854   2.214       .  S
N839        C845   1.356       .  A
N840        N841   1.317       .  A
N840       Mn865   2.194       .  S
N841        C845   1.347       .  A
N842        N843   1.315       .  A
N842       Mn854   2.173       .  S
N843        C844   1.345       .  A
C844        C908   1.475       .  S
C845        C977   1.467       .  S
N846       N1376   1.316   1_455  A
N846        N847   1.325       .  A
N846       Mn876   2.223       .  S
N847       C1379   1.355       .  A
N848        N849   1.321       .  A
N848        N850   1.316       .  A
N849        C856   1.353       .  A
N850        N851   1.322       .  A
N850      Mn1924   2.210       .  S
N851        C856   1.354       .  A
N852       N1370   1.316   1_565  A
N852        N853   1.323       .  A
N852       Mn854   2.209       .  S
N853        C855   1.353   1_565  A
C855       N1371   1.355       .  A
C856        C992   1.473       .  S
N857        N858   1.322       .  A
N857        N863   1.313       .  A
N857      Mn1913   2.189   1_455  S
N858        C866   1.353       .  A
N859       N1385   1.319   1_455  A
N859        N860   1.325       .  A
N859       Mn877   2.235       .  S
N860       C1915   1.357   1_455  A
N861       N1383   1.319   1_565  A
N861        N862   1.325       .  A
N861       Mn865   2.220       .  S
N863        N864   1.316       .  A
N864        C866   1.355       .  A
Mn865      N1905   2.189       .  S
C866        C896   1.488       .  S
C867       N1908   1.357       .  A
N868        N869   1.318       .  A
N868        N874   1.316       .  A
N868       Mn876   2.193       .  S
N869        C879   1.350       .  A
N870        N871   1.321       .  A
N870        N872   1.317       .  A
N870       Mn877   2.215       .  S
N871        C880   1.353       .  A
N872        N873   1.321       .  A
N872       Mn876   2.213       .  S
N873        C880   1.357       .  A
N874        N875   1.322       .  A
N874       Mn877   2.209       .  S
N875        C879   1.356       .  A
Mn876      N1898   2.210   1_455  S
Mn876     Cl1926   2.548       .  S
Mn877     Cl1926   2.547       .  S
Cl878     Mn1924   2.548       .  S
Cl878     Mn1925   2.547       .  S
C879        C881   1.483       .  S
C880        C965   1.493       .  S
C881        C882   1.396       .  A
C881        C886   1.394       .  A
C882        C883   1.408       .  A
C882        H891   1.085       .  S
C883        C884   1.450       .  A
C883        S887   1.801       .  S
C884        C885   1.442       .  A
C885        C886   1.393       .  A
C885        H892   1.072       .  S
C886        S888   1.807       .  S
S887        H890   1.394       .  S
S888        H889   1.408       .  S
C893        C894   1.425       .  A
C893        C898   1.443       .  A
C894        C895   1.404       .  A
C894        H903   1.081       .  S
C895        C896   1.409       .  A
C895        S899   1.801       .  S
C896        C897   1.392       .  A
C897        C898   1.395       .  A
C897        H904   1.083       .  S
C898        S900   1.807       .  S
S899        H902   1.408       .  S
S900        H901   1.407       .  S
C905        C906   1.405       .  A
C905        C910   1.449       .  A
C906        C907   1.396       .  A
C906        H915   1.066       .  S
C907        C908   1.411       .  A
C907        S911   1.800       .  S
C908        C909   1.390       .  A
C909        C910   1.393       .  A
C909        H916   1.085       .  S
C910        S912   1.816       .  S
S911        H914   1.408       .  S
S912        H913   1.398       .  S
C917        C918   1.422       .  A
C917        C922   1.447       .  A
C918        C919   1.407       .  A
C918        H927   1.077       .  S
C919        C920   1.407       .  A
C919        S923   1.803       .  S
C920        C921   1.387       .  A
C921        C922   1.393       .  A
C921        H928   1.084       .  S
C922        S924   1.809       .  S
S923        H926   1.406   1_455  S
S924        H925   1.408       .  S
C929        C930   1.423       .  A
C929        C934   1.430       .  A
C930        C931   1.389       .  A
C930        H939   1.074       .  S
C931        C932   1.398       .  A
C931        S935   1.807       .  S
C932        C933   1.404       .  A
C933        C934   1.413       .  A
C933        H940   1.083       .  S
C934        S936   1.798       .  S
S935        H938   1.405       .  S
S936        H937   1.407       .  S
C941        C942   1.391       .  A
C941        C946   1.408       .  A
C942        C943   1.400       .  A
C942        H951   1.085       .  S
C943        C944   1.437       .  A
C943        S947   1.796       .  S
C944        C945   1.417       .  A
C945        C946   1.401       .  A
C945        H952   1.080       .  S
C946        S948   1.804       .  S
S947        H950   1.388       .  S
S948        H949   1.406       .  S
C953        C954   1.407       .  A
C953        C958   1.426       .  A
C954        C955   1.391       .  A
C954        H963   1.077       .  S
C955        C956   1.432       .  A
C955        S959   1.819       .  S
C956        C957   1.418       .  A
C957        C958   1.398       .  A
C957        H964   1.075       .  S
C958        S960   1.801       .  S
S959        H962   1.397       .  S
S960        H961   1.407       .  S
C965        C966   1.396       .  A
C965        C970   1.410       .  A
C966        C967   1.400       .  A
C966        H975   1.084       .  S
C967        C968   1.448       .  A
C967        S971   1.815       .  S
C968        C969   1.419       .  A
C969        C970   1.404       .  A
C969        H976   1.076       .  S
C970        S972   1.799       .  S
S971        H974   1.394       .  S
S972        H973   1.408       .  S
C977        C978   1.393       .  A
C977        C982   1.402       .  A
C978        C979   1.402       .  A
C978        H987   1.085       .  S
C979        C980   1.444       .  A
C979        S983   1.807       .  S
C980        C981   1.422       .  A
C981        C982   1.395       .  A
C981        H988   1.075       .  S
C982        S984   1.808       .  S
S983        H986   1.398       .  S
S984        H985   1.404       .  S
C989        C990   1.431       .  A
C989        C994   1.442       .  A
C990        C991   1.386       .  A
C990        H999   1.071       .  S
C991        C992   1.394       .  A
C991        S995   1.809       .  S
C992        C993   1.401       .  A
C993        C994   1.414       .  A
C993       H1000   1.084       .  S
C994        S996   1.813       .  S
S995        H998   1.405       .  S
S996        H997   1.392       .  S
C1001      C1006   1.430       .  A
C1002      C1003   1.391       .  A
C1002      H1011   1.076       .  S
C1003      S1007   1.804       .  S
C1004      C1005   1.401       .  A
C1005      C1006   1.404       .  A
C1005      H1012   1.082       .  S
C1006      S1008   1.803       .  S
S1007      H1010   1.408       .  S
S1008      H1009   1.406       .  S
C1013      C1014   1.396       .  A
C1013      C1018   1.404       .  A
C1014      C1015   1.399       .  A
C1014      H1023   1.085       .  S
C1015      C1016   1.445       .  A
C1015      S1019   1.815       .  S
C1016      C1017   1.421       .  A
C1017      C1018   1.390       .  A
C1017      H1024   1.082   1_556  S
C1018      S1020   1.803   1_556  S
S1019      H1022   1.393       .  S
S1020      H1021   1.406   1_554  S
C1025      C1026   1.419   1_556  A
C1025      C1030   1.439       .  A
C1026      C1027   1.387       .  A
C1027      C1028   1.403   1_554  A
C1028      C1029   1.398       .  A
C1029      C1030   1.402       .  A
C1029      H1036   1.084       .  S
C1030      S1032   1.804       .  S
S1032      H1033   1.400   1_556  S
C1037      C1038   1.414       .  A
C1037      C1042   1.433       .  A
C1038      C1039   1.393       .  A
C1038      H1047   1.073       .  S
C1039      C1040   1.429       .  A
C1039      S1043   1.817       .  S
C1040      C1041   1.410       .  A
C1041      C1042   1.389       .  A
C1041      H1048   1.079       .  S
C1042      S1044   1.815       .  S
S1043      H1046   1.408       .  S
S1044      H1045   1.394       .  S
C1049      C1525   1.580   1_554  S
C1049      C1540   1.560   1_554  S
C1049      C1549   1.563   1_554  S
C1049      C1302   1.575       .  S
C1050      C1230   1.587       .  S
C1050      C1242   1.584       .  S
C1050      C1251   1.591       .  S
C1050      C1299   1.568       .  S
C1051      C1179   1.586       .  S
C1051      C1191   1.587       .  S
C1051      C1206   1.578       .  S
C1051      C1215   1.564       .  S
C1052      C1146   1.622       .  S
C1052      C1155   1.584       .  S
C1052      C1167   1.588       .  S
C1052      C1218   1.562       .  S
N1053      N1054   1.316       .  A
N1053      N1059   1.313       .  A
N1054      C1061   1.350       .  A
N1055      N1056   1.323       .  A
N1055     Mn1333   2.219   1_554  S
N1056      C1062   1.354   1_655  A
N1057      N1058   1.325       .  A
N1057     Mn1344   2.221   1_554  S
N1059      N1060   1.319       .  A
N1059     Mn1595   2.190   1_545  S
N1060      C1061   1.353       .  A
C1061      C1290   1.473       .  S
C1062      C1117   1.482       .  S
N1063      N1069   1.316       .  A
N1063      N1064   1.316       .  A
N1063     Mn1093   2.186       .  S
N1064      C1072   1.348       .  A
N1065      N1066   1.317       .  A
N1065      N1067   1.320       .  A
N1065     Mn1071   2.194       .  S
N1066      C1073   1.346       .  A
N1067      N1068   1.325       .  A
N1067     Mn1093   2.231       .  S
N1068      C1073   1.358       .  A
N1069      N1070   1.319       .  A
N1069     Mn1071   2.188       .  S
N1070      C1072   1.352       .  A
Mn1071     N1317   2.219       .  S
Mn1071     N1583   2.190       .  S
Mn1071    Cl1619   2.541       .  S
C1072      C1275   1.469       .  S
C1073      C1203   1.473       .  S
N1074      N1075   1.319       .  A
N1074      N1080   1.314       .  A
N1074     Mn1082   2.192       .  S
N1075      C1083   1.354       .  A
N1076      N1078   1.317       .  A
N1076      N1077   1.319       .  A
N1076     Mn1094   2.210       .  S
N1077      C1084   1.356       .  A
N1078      N1079   1.321       .  A
N1078     Mn1082   2.201       .  S
N1079      C1084   1.351       .  A
N1080      N1081   1.317       .  A
N1080     Mn1094   2.188       .  S
N1081      C1083   1.351       .  A
Mn1082     N1319   2.221       .  S
C1083      C1266   1.479       .  S
C1084      C1182   1.478       .  S
N1085      N1086   1.327       .  A
N1085     Mn1093   2.231       .  S
N1086      C1620   1.358       .  A
N1087      N1088   1.321       .  A
N1087      N1089   1.316       .  A
N1087     Mn1618   2.204       .  S
N1088      C1097   1.353       .  A
N1089      N1090   1.323       .  A
N1090      C1097   1.355       .  A
N1091      N1092   1.324       .  A
N1091     Mn1094   2.212       .  S
Mn1093    Cl1619   2.550       .  S
Mn1094     N1611   2.204   1_545  S
Cl1095    Mn1595   2.541   1_545  S
Cl1095    Mn1617   2.550   1_545  S
C1096      N1610   1.358   1_545  A
C1096      C1129   1.487       .  S
C1097      C1194   1.475       .  S
N1098      N1099   1.320       .  A
N1098      N1104   1.314       .  A
N1098     Mn1127   2.202       .  S
N1099      C1106   1.357       .  A
N1100      N1102   1.318       .  A
N1100      N1101   1.323       .  A
N1100     Mn1116   2.214       .  S
N1101      C1107   1.356       .  A
N1102      N1103   1.317       .  A
N1102     Mn1127   2.194       .  S
N1103      C1107   1.347       .  A
N1104      N1105   1.315       .  A
N1104     Mn1116   2.173       .  S
N1105      C1106   1.345       .  A
C1106      C1170   1.475       .  S
C1107      C1239   1.467       .  S
N1108      N1109   1.325       .  A
N1108     Mn1138   2.223       .  S
N1110      N1111   1.321       .  A
N1110      N1112   1.316       .  A
N1110     Mn1640   2.207   1_545  S
N1111      C1118   1.353       .  A
N1112      N1113   1.322       .  A
N1113      C1118   1.354       .  A
N1114      N1115   1.323       .  A
N1114     Mn1116   2.209       .  S
N1115      C1117   1.353   1_655  A
Mn1116     N1634   2.207       .  S
Mn1116    Cl1664   2.550   1_655  S
C1118      C1254   1.473       .  S
N1119      N1120   1.322       .  A
N1119      N1125   1.313       .  A
N1120      C1128   1.353       .  A
N1121      N1122   1.325       .  A
N1121     Mn1139   2.235       .  S
N1123      N1124   1.325       .  A
N1123     Mn1127   2.220       .  S
N1124      C1653   1.354       .  A
N1125      N1126   1.316       .  A
N1125     Mn1663   2.199       .  S
N1126      C1128   1.355       .  A
Mn1127    Cl1664   2.549   1_655  S
C1128      C1158   1.488       .  S
C1129      N1648   1.354   1_545  A
N1130      N1131   1.318       .  A
N1130      N1136   1.316       .  A
N1130     Mn1138   2.193       .  S
N1131      C1141   1.350       .  A
N1132      N1133   1.321       .  A
N1132      N1134   1.317       .  A
N1132     Mn1139   2.215       .  S
N1133      C1142   1.353       .  A
N1134      N1135   1.321       .  A
N1134     Mn1138   2.213       .  S
N1135      C1142   1.357       .  A
N1136      N1137   1.322       .  A
N1136     Mn1139   2.209       .  S
N1137      C1141   1.356       .  A
Mn1139     N1649   2.199   1_545  S
Cl1140    Mn1640   2.550   1_445  S
Cl1140    Mn1651   2.549   1_445  S
C1141      C1143   1.483       .  S
C1142      C1227   1.493       .  S
C1143      C1144   1.396       .  A
C1143      C1148   1.394       .  A
C1144      C1145   1.408       .  A
C1144      H1153   1.085       .  S
C1145      C1146   1.450       .  A
C1145      S1149   1.801       .  S
C1146      C1147   1.442       .  A
C1147      C1148   1.393       .  A
C1147      H1154   1.072       .  S
C1148      S1150   1.807       .  S
S1149      H1152   1.394       .  S
S1150      H1151   1.408       .  S
C1155      C1156   1.425       .  A
C1155      C1160   1.443       .  A
C1156      C1157   1.404       .  A
C1156      H1165   1.081       .  S
C1157      C1158   1.409       .  A
C1157      S1161   1.801       .  S
C1158      C1159   1.392       .  A
C1159      C1160   1.395       .  A
C1159      H1166   1.083       .  S
C1160      S1162   1.807       .  S
S1161      H1164   1.408       .  S
S1162      H1163   1.407       .  S
C1167      C1168   1.405       .  A
C1167      C1172   1.449       .  A
C1168      C1169   1.396       .  A
C1168      H1177   1.066       .  S
C1169      C1170   1.411       .  A
C1169      S1173   1.800       .  S
C1170      C1171   1.390       .  A
C1171      C1172   1.393       .  A
C1171      H1178   1.085       .  S
C1172      S1174   1.816       .  S
S1173      H1176   1.408       .  S
S1174      H1175   1.398       .  S
C1179      C1180   1.422       .  A
C1179      C1184   1.447       .  A
C1180      C1181   1.407       .  A
C1180      H1189   1.077       .  S
C1181      C1182   1.407       .  A
C1181      S1185   1.803       .  S
C1182      C1183   1.387       .  A
C1183      C1184   1.393       .  A
C1183      H1190   1.084       .  S
C1184      S1186   1.809       .  S
S1185      H1188   1.406       .  S
S1186      H1187   1.408       .  S
C1191      C1192   1.423       .  A
C1191      C1196   1.430       .  A
C1192      C1193   1.389       .  A
C1192      H1201   1.074       .  S
C1193      C1194   1.398       .  A
C1193      S1197   1.807       .  S
C1194      C1195   1.404       .  A
C1195      C1196   1.413       .  A
C1195      H1202   1.083       .  S
C1196      S1198   1.798       .  S
S1197      H1200   1.405       .  S
S1198      H1199   1.407       .  S
C1203      C1204   1.391       .  A
C1203      C1208   1.408       .  A
C1204      C1205   1.400       .  A
C1204      H1213   1.085       .  S
C1205      C1206   1.437       .  A
C1205      S1209   1.796       .  S
C1206      C1207   1.417       .  A
C1207      C1208   1.401       .  A
C1207      H1214   1.080       .  S
C1208      S1210   1.804       .  S
S1209      H1212   1.388       .  S
S1210      H1211   1.406       .  S
C1215      C1216   1.407       .  A
C1215      C1220   1.426       .  A
C1216      C1217   1.391       .  A
C1216      H1225   1.077       .  S
C1217      C1218   1.432       .  A
C1217      S1221   1.819       .  S
C1218      C1219   1.418       .  A
C1219      C1220   1.398       .  A
C1219      H1226   1.075       .  S
C1220      S1222   1.801       .  S
S1221      H1224   1.397       .  S
S1222      H1223   1.407       .  S
C1227      C1228   1.396       .  A
C1227      C1232   1.410       .  A
C1228      C1229   1.400       .  A
C1228      H1237   1.084       .  S
C1229      C1230   1.448       .  A
C1229      S1233   1.815       .  S
C1230      C1231   1.419       .  A
C1231      C1232   1.404       .  A
C1231      H1238   1.076       .  S
C1232      S1234   1.799       .  S
S1233      H1236   1.394       .  S
S1234      H1235   1.408       .  S
C1239      C1240   1.393       .  A
C1239      C1244   1.402       .  A
C1240      C1241   1.402       .  A
C1240      H1249   1.085       .  S
C1241      C1242   1.444       .  A
C1241      S1245   1.807       .  S
C1242      C1243   1.422       .  A
C1243      C1244   1.395       .  A
C1243      H1250   1.075       .  S
C1244      S1246   1.808       .  S
S1245      H1248   1.398       .  S
S1246      H1247   1.404       .  S
C1251      C1252   1.431       .  A
C1251      C1256   1.442       .  A
C1252      C1253   1.386       .  A
C1252      H1261   1.071       .  S
C1253      C1254   1.394       .  A
C1253      S1257   1.809       .  S
C1254      C1255   1.401       .  A
C1255      C1256   1.414       .  A
C1255      H1262   1.084       .  S
C1256      S1258   1.813       .  S
S1257      H1260   1.405       .  S
S1258      H1259   1.392       .  S
C1263      C1311   1.580       .  S
C1263      C1526   1.424       .  A
C1263      C1268   1.430       .  A
C1264      C1525   1.424   1_554  A
C1264      C1265   1.391       .  A
C1264      H1273   1.076       .  S
C1265      C1528   1.404   1_554  A
C1265      S1269   1.804       .  S
C1266      C1527   1.404       .  A
C1266      C1267   1.401       .  A
C1267      C1268   1.404       .  A
C1267      H1274   1.082       .  S
C1268      S1270   1.803       .  S
S1269      H1272   1.408       .  S
S1270      H1271   1.406       .  S
C1275      C1276   1.396       .  A
C1275      C1280   1.404       .  A
C1276      C1277   1.399       .  A
C1276      H1285   1.085       .  S
C1277      C1278   1.445       .  A
C1277      S1281   1.815       .  S
C1278      C1311   1.560       .  S
C1278      C1279   1.421       .  A
C1279      C1280   1.390       .  A
C1279      H1286   1.082       .  S
C1280      S1282   1.803       .  S
S1281      H1284   1.393       .  S
S1282      H1283   1.406       .  S
C1287      C1311   1.563       .  S
C1287      C1288   1.419       .  A
C1287      C1292   1.439       .  A
C1288      C1289   1.387       .  A
C1288      H1559   1.077       .  S
C1289      C1290   1.403       .  A
C1289      S1555   1.804       .  S
C1290      C1291   1.398       .  A
C1291      C1292   1.402       .  A
C1291      H1298   1.084       .  S
C1292      S1294   1.804       .  S
S1293      C1551   1.804       .  S
S1293      H1558   1.408       .  S
S1294      H1295   1.400       .  S
H1296      S1555   1.408       .  S
H1297      C1550   1.077       .  S
C1299      C1300   1.414       .  A
C1299      C1304   1.433       .  A
C1300      C1301   1.393       .  A
C1300      H1309   1.073       .  S
C1301      C1302   1.429       .  A
C1301      S1305   1.817       .  S
C1302      C1303   1.410       .  A
C1303      C1304   1.389       .  A
C1303      H1310   1.079       .  S
C1304      S1306   1.815       .  S
S1305      H1308   1.408       .  S
S1306      H1307   1.394       .  S
C1311      C1564   1.575       .  S
C1312      C1492   1.587       .  S
C1312      C1504   1.584       .  S
C1312      C1513   1.591       .  S
C1312      C1561   1.568       .  S
C1313      C1441   1.586       .  S
C1313      C1453   1.587       .  S
C1313      C1468   1.578       .  S
C1313      C1477   1.564       .  S
C1314      C1408   1.622       .  S
C1314      C1417   1.584       .  S
C1314      C1429   1.588       .  S
C1314      C1480   1.562       .  S
N1315      N1316   1.316       .  A
N1315      N1321   1.313       .  A
N1316      C1323   1.350       .  A
N1317      N1318   1.323       .  A
N1318      C1324   1.354   1_655  A
N1319      N1320   1.325       .  A
N1321      N1322   1.319       .  A
N1321     Mn1857   2.190   1_545  S
N1322      C1323   1.353       .  A
C1323      C1552   1.473       .  S
C1324      C1379   1.482       .  S
N1325      N1331   1.316       .  A
N1325      N1326   1.316       .  A
N1325     Mn1355   2.186       .  S
N1326      C1334   1.348       .  A
N1327      N1328   1.317       .  A
N1327      N1329   1.320       .  A
N1327     Mn1333   2.194       .  S
N1328      C1335   1.346       .  A
N1329      N1330   1.325       .  A
N1329     Mn1355   2.231       .  S
N1330      C1335   1.358       .  A
N1331      N1332   1.319       .  A
N1331     Mn1333   2.188       .  S
N1332      C1334   1.352       .  A
Mn1333     N1845   2.190       .  S
Mn1333    Cl1881   2.541       .  S
C1334      C1537   1.469       .  S
C1335      C1465   1.473       .  S
N1336      N1337   1.319       .  A
N1336      N1342   1.314       .  A
N1336     Mn1344   2.192       .  S
N1337      C1345   1.354       .  A
N1338      N1340   1.317       .  A
N1338      N1339   1.319       .  A
N1338     Mn1356   2.210       .  S
N1339      C1346   1.356       .  A
N1340      N1341   1.321       .  A
N1340     Mn1344   2.201       .  S
N1341      C1346   1.351       .  A
N1342      N1343   1.317       .  A
N1342     Mn1356   2.188       .  S
N1343      C1345   1.351       .  A
C1345      C1528   1.479       .  S
C1346      C1444   1.478       .  S
N1347      N1348   1.327       .  A
N1347     Mn1355   2.231       .  S
N1348      C1882   1.358       .  A
N1349      N1350   1.321       .  A
N1349      N1351   1.316       .  A
N1349     Mn1880   2.204       .  S
N1350      C1359   1.353       .  A
N1351      N1352   1.323       .  A
N1352      C1359   1.355       .  A
N1353      N1354   1.324       .  A
N1353     Mn1356   2.212       .  S
Mn1355    Cl1881   2.550       .  S
Mn1356     N1873   2.204   1_545  S
Cl1357    Mn1857   2.541   1_545  S
Cl1357    Mn1879   2.550   1_545  S
C1358      N1872   1.358   1_545  A
C1358      C1391   1.487       .  S
C1359      C1456   1.475       .  S
N1360      N1361   1.320       .  A
N1360      N1366   1.314       .  A
N1360     Mn1389   2.202       .  S
N1361      C1368   1.357       .  A
N1362      N1364   1.318       .  A
N1362      N1363   1.323       .  A
N1362     Mn1378   2.214       .  S
N1363      C1369   1.356       .  A
N1364      N1365   1.317       .  A
N1364     Mn1389   2.194       .  S
N1365      C1369   1.347       .  A
N1366      N1367   1.315       .  A
N1366     Mn1378   2.173       .  S
N1367      C1368   1.345       .  A
C1368      C1432   1.475       .  S
C1369      C1501   1.467       .  S
N1370      N1371   1.325       .  A
N1370     Mn1400   2.223       .  S
N1372      N1373   1.321       .  A
N1372      N1374   1.316       .  A
N1372     Mn1902   2.207   1_545  S
N1373      C1380   1.353       .  A
N1374      N1375   1.322       .  A
N1375      C1380   1.354       .  A
N1376      N1377   1.323       .  A
N1376     Mn1378   2.209       .  S
N1377      C1379   1.353   1_655  A
Mn1378     N1896   2.207       .  S
Mn1378    Cl1926   2.550   1_655  S
C1380      C1516   1.473       .  S
N1381      N1382   1.322       .  A
N1381      N1387   1.313       .  A
N1382      C1390   1.353       .  A
N1383      N1384   1.325       .  A
N1383     Mn1401   2.235       .  S
N1385      N1386   1.325       .  A
N1385     Mn1389   2.220       .  S
N1386      C1915   1.354       .  A
N1387      N1388   1.316       .  A
N1387     Mn1925   2.199       .  S
N1388      C1390   1.355       .  A
Mn1389    Cl1926   2.549   1_655  S
C1390      C1420   1.488       .  S
C1391      N1910   1.354   1_545  A
N1392      N1393   1.318       .  A
N1392      N1398   1.316       .  A
N1392     Mn1400   2.193       .  S
N1393      C1403   1.350       .  A
N1394      N1395   1.321       .  A
N1394      N1396   1.317       .  A
N1394     Mn1401   2.215       .  S
N1395      C1404   1.353       .  A
N1396      N1397   1.321       .  A
N1396     Mn1400   2.213       .  S
N1397      C1404   1.357       .  A
N1398      N1399   1.322       .  A
N1398     Mn1401   2.209       .  S
N1399      C1403   1.356       .  A
Mn1401     N1911   2.199   1_545  S
Cl1402    Mn1902   2.550   1_445  S
Cl1402    Mn1913   2.549   1_445  S
C1403      C1405   1.483       .  S
C1404      C1489   1.493       .  S
C1405      C1406   1.396       .  A
C1405      C1410   1.394       .  A
C1406      C1407   1.408       .  A
C1406      H1415   1.085       .  S
C1407      C1408   1.450       .  A
C1407      S1411   1.801       .  S
C1408      C1409   1.442       .  A
C1409      C1410   1.393       .  A
C1409      H1416   1.072       .  S
C1410      S1412   1.807       .  S
S1411      H1414   1.394       .  S
S1412      H1413   1.408       .  S
C1417      C1418   1.425       .  A
C1417      C1422   1.443       .  A
C1418      C1419   1.404       .  A
C1418      H1427   1.081       .  S
C1419      C1420   1.409       .  A
C1419      S1423   1.801       .  S
C1420      C1421   1.392       .  A
C1421      C1422   1.395       .  A
C1421      H1428   1.083       .  S
C1422      S1424   1.807       .  S
S1423      H1426   1.408       .  S
S1424      H1425   1.407       .  S
C1429      C1430   1.405       .  A
C1429      C1434   1.449       .  A
C1430      C1431   1.396       .  A
C1430      H1439   1.066       .  S
C1431      C1432   1.411       .  A
C1431      S1435   1.800       .  S
C1432      C1433   1.390       .  A
C1433      C1434   1.393       .  A
C1433      H1440   1.085       .  S
C1434      S1436   1.816       .  S
S1435      H1438   1.408       .  S
S1436      H1437   1.398       .  S
C1441      C1442   1.422       .  A
C1441      C1446   1.447       .  A
C1442      C1443   1.407       .  A
C1442      H1451   1.077       .  S
C1443      C1444   1.407       .  A
C1443      S1447   1.803       .  S
C1444      C1445   1.387       .  A
C1445      C1446   1.393       .  A
C1445      H1452   1.084       .  S
C1446      S1448   1.809       .  S
S1447      H1450   1.406       .  S
S1448      H1449   1.408       .  S
C1453      C1454   1.423       .  A
C1453      C1458   1.430       .  A
C1454      C1455   1.389       .  A
C1454      H1463   1.074       .  S
C1455      C1456   1.398       .  A
C1455      S1459   1.807       .  S
C1456      C1457   1.404       .  A
C1457      C1458   1.413       .  A
C1457      H1464   1.083       .  S
C1458      S1460   1.798       .  S
S1459      H1462   1.405       .  S
S1460      H1461   1.407       .  S
C1465      C1466   1.391       .  A
C1465      C1470   1.408       .  A
C1466      C1467   1.400       .  A
C1466      H1475   1.085       .  S
C1467      C1468   1.437       .  A
C1467      S1471   1.796       .  S
C1468      C1469   1.417       .  A
C1469      C1470   1.401       .  A
C1469      H1476   1.080       .  S
C1470      S1472   1.804       .  S
S1471      H1474   1.388       .  S
S1472      H1473   1.406       .  S
C1477      C1478   1.407       .  A
C1477      C1482   1.426       .  A
C1478      C1479   1.391       .  A
C1478      H1487   1.077       .  S
C1479      C1480   1.432       .  A
C1479      S1483   1.819       .  S
C1480      C1481   1.418       .  A
C1481      C1482   1.398       .  A
C1481      H1488   1.075       .  S
C1482      S1484   1.801       .  S
S1483      H1486   1.397       .  S
S1484      H1485   1.407       .  S
C1489      C1490   1.396       .  A
C1489      C1494   1.410       .  A
C1490      C1491   1.400       .  A
C1490      H1499   1.084       .  S
C1491      C1492   1.448       .  A
C1491      S1495   1.815       .  S
C1492      C1493   1.419       .  A
C1493      C1494   1.404       .  A
C1493      H1500   1.076       .  S
C1494      S1496   1.799       .  S
S1495      H1498   1.394       .  S
S1496      H1497   1.408       .  S
C1501      C1502   1.393       .  A
C1501      C1506   1.402       .  A
C1502      C1503   1.402       .  A
C1502      H1511   1.085       .  S
C1503      C1504   1.444       .  A
C1503      S1507   1.807       .  S
C1504      C1505   1.422       .  A
C1505      C1506   1.395       .  A
C1505      H1512   1.075       .  S
C1506      S1508   1.808       .  S
S1507      H1510   1.398       .  S
S1508      H1509   1.404       .  S
C1513      C1514   1.431       .  A
C1513      C1518   1.442       .  A
C1514      C1515   1.386       .  A
C1514      H1523   1.071       .  S
C1515      C1516   1.394       .  A
C1515      S1519   1.809       .  S
C1516      C1517   1.401       .  A
C1517      C1518   1.414       .  A
C1517      H1524   1.084       .  S
C1518      S1520   1.813       .  S
S1519      H1522   1.405       .  S
S1520      H1521   1.392       .  S
C1525      C1530   1.430       .  A
C1526      C1527   1.391       .  A
C1526      H1535   1.076       .  S
C1527      S1531   1.804       .  S
C1528      C1529   1.401       .  A
C1529      C1530   1.404       .  A
C1529      H1536   1.082       .  S
C1530      S1532   1.803       .  S
S1531      H1534   1.408       .  S
S1532      H1533   1.406       .  S
C1537      C1538   1.396       .  A
C1537      C1542   1.404       .  A
C1538      C1539   1.399       .  A
C1538      H1547   1.085       .  S
C1539      C1540   1.445       .  A
C1539      S1543   1.815       .  S
C1540      C1541   1.421       .  A
C1541      C1542   1.390       .  A
C1541      H1548   1.082   1_556  S
C1542      S1544   1.803   1_556  S
S1543      H1546   1.393       .  S
S1544      H1545   1.406   1_554  S
C1549      C1550   1.419   1_556  A
C1549      C1554   1.439       .  A
C1550      C1551   1.387       .  A
C1551      C1552   1.403   1_554  A
C1552      C1553   1.398       .  A
C1553      C1554   1.402       .  A
C1553      H1560   1.084       .  S
C1554      S1556   1.804       .  S
S1556      H1557   1.400   1_556  S
C1561      C1562   1.414       .  A
C1561      C1566   1.433       .  A
C1562      C1563   1.393       .  A
C1562      H1571   1.073       .  S
C1563      C1564   1.429       .  A
C1563      S1567   1.817       .  S
C1564      C1565   1.410       .  A
C1565      C1566   1.389       .  A
C1565      H1572   1.079       .  S
C1566      S1568   1.815       .  S
S1567      H1570   1.408       .  S
S1568      H1569   1.394       .  S
C1573      C2049   1.580   1_554  S
C1573      C2064   1.560   1_554  S
C1573      C2073   1.563   1_554  S
C1573      C1826   1.575       .  S
C1574      C1754   1.587       .  S
C1574      C1766   1.584       .  S
C1574      C1775   1.591       .  S
C1574      C1823   1.568       .  S
C1575      C1703   1.586       .  S
C1575      C1715   1.587       .  S
C1575      C1730   1.578       .  S
C1575      C1739   1.564       .  S
C1576      C1670   1.622       .  S
C1576      C1679   1.584       .  S
C1576      C1691   1.588       .  S
C1576      C1742   1.562       .  S
N1577      N1578   1.316       .  A
N1577      N1583   1.313       .  A
N1578      C1585   1.350       .  A
N1579      N1580   1.323       .  A
N1579     Mn1857   2.219   1_554  S
N1580      C1586   1.354   1_665  A
N1581      N1582   1.325       .  A
N1581     Mn1868   2.221   1_554  S
N1583      N1584   1.319       .  A
N1584      C1585   1.353       .  A
C1585      C1814   1.473       .  S
C1586      C1641   1.482       .  S
N1587      N1593   1.316       .  A
N1587      N1588   1.316       .  A
N1587     Mn1617   2.186       .  S
N1588      C1596   1.348       .  A
N1589      N1590   1.317       .  A
N1589      N1591   1.320       .  A
N1589     Mn1595   2.194       .  S
N1590      C1597   1.346       .  A
N1591      N1592   1.325       .  A
N1591     Mn1617   2.231       .  S
N1592      C1597   1.358       .  A
N1593      N1594   1.319       .  A
N1593     Mn1595   2.188       .  S
N1594      C1596   1.352       .  A
Mn1595     N1841   2.219       .  S
C1596      C1799   1.469       .  S
C1597      C1727   1.473       .  S
N1598      N1599   1.319       .  A
N1598      N1604   1.314       .  A
N1598     Mn1606   2.192       .  S
N1599      C1607   1.354       .  A
N1600      N1602   1.317       .  A
N1600      N1601   1.319       .  A
N1600     Mn1618   2.210       .  S
N1601      C1608   1.356       .  A
N1602      N1603   1.321       .  A
N1602     Mn1606   2.201       .  S
N1603      C1608   1.351       .  A
N1604      N1605   1.317       .  A
N1604     Mn1618   2.188       .  S
N1605      C1607   1.351       .  A
Mn1606     N1843   2.221       .  S
C1607      C1790   1.479       .  S
C1608      C1706   1.478       .  S
N1609      N1610   1.327       .  A
N1609     Mn1617   2.231       .  S
N1611      N1612   1.321       .  A
N1611      N1613   1.316       .  A
N1612      C1621   1.353       .  A
N1613      N1614   1.323       .  A
N1614      C1621   1.355       .  A
N1615      N1616   1.324       .  A
N1615     Mn1618   2.212       .  S
C1620      C1653   1.487       .  S
C1621      C1718   1.475       .  S
N1622      N1623   1.320       .  A
N1622      N1628   1.314       .  A
N1622     Mn1651   2.202       .  S
N1623      C1630   1.357       .  A
N1624      N1626   1.318       .  A
N1624      N1625   1.323       .  A
N1624     Mn1640   2.214       .  S
N1625      C1631   1.356       .  A
N1626      N1627   1.317       .  A
N1626     Mn1651   2.194       .  S
N1627      C1631   1.347       .  A
N1628      N1629   1.315       .  A
N1628     Mn1640   2.173       .  S
N1629      C1630   1.345       .  A
C1630      C1694   1.475       .  S
C1631      C1763   1.467       .  S
N1632      N1633   1.325       .  A
N1632     Mn1662   2.223       .  S
N1634      N1635   1.321       .  A
N1634      N1636   1.316       .  A
N1635      C1642   1.353       .  A
N1636      N1637   1.322       .  A
N1637      C1642   1.354       .  A
N1638      N1639   1.323       .  A
N1638     Mn1640   2.209       .  S
N1639      C1641   1.353   1_665  A
C1642      C1778   1.473       .  S
N1643      N1644   1.322       .  A
N1643      N1649   1.313       .  A
N1644      C1652   1.353       .  A
N1645      N1646   1.325       .  A
N1645     Mn1663   2.235       .  S
N1647      N1648   1.325       .  A
N1647     Mn1651   2.220       .  S
N1649      N1650   1.316       .  A
N1650      C1652   1.355       .  A
C1652      C1682   1.488       .  S
N1654      N1655   1.318       .  A
N1654      N1660   1.316       .  A
N1654     Mn1662   2.193       .  S
N1655      C1665   1.350       .  A
N1656      N1657   1.321       .  A
N1656      N1658   1.317       .  A
N1656     Mn1663   2.215       .  S
N1657      C1666   1.353       .  A
N1658      N1659   1.321       .  A
N1658     Mn1662   2.213       .  S
N1659      C1666   1.357       .  A
N1660      N1661   1.322       .  A
N1660     Mn1663   2.209       .  S
N1661      C1665   1.356       .  A
C1665      C1667   1.483       .  S
C1666      C1751   1.493       .  S
C1667      C1668   1.396       .  A
C1667      C1672   1.394       .  A
C1668      C1669   1.408       .  A
C1668      H1677   1.085       .  S
C1669      C1670   1.450       .  A
C1669      S1673   1.801       .  S
C1670      C1671   1.442       .  A
C1671      C1672   1.393       .  A
C1671      H1678   1.072       .  S
C1672      S1674   1.807       .  S
S1673      H1676   1.394       .  S
S1674      H1675   1.408       .  S
C1679      C1680   1.425       .  A
C1679      C1684   1.443       .  A
C1680      C1681   1.404       .  A
C1680      H1689   1.081       .  S
C1681      C1682   1.409       .  A
C1681      S1685   1.801       .  S
C1682      C1683   1.392       .  A
C1683      C1684   1.395       .  A
C1683      H1690   1.083       .  S
C1684      S1686   1.807       .  S
S1685      H1688   1.408       .  S
S1686      H1687   1.407       .  S
C1691      C1692   1.405       .  A
C1691      C1696   1.449       .  A
C1692      C1693   1.396       .  A
C1692      H1701   1.066       .  S
C1693      C1694   1.411       .  A
C1693      S1697   1.800       .  S
C1694      C1695   1.390       .  A
C1695      C1696   1.393       .  A
C1695      H1702   1.085       .  S
C1696      S1698   1.816       .  S
S1697      H1700   1.408       .  S
S1698      H1699   1.398       .  S
C1703      C1704   1.422       .  A
C1703      C1708   1.447       .  A
C1704      C1705   1.407       .  A
C1704      H1713   1.077       .  S
C1705      C1706   1.407       .  A
C1705      S1709   1.803       .  S
C1706      C1707   1.387       .  A
C1707      C1708   1.393       .  A
C1707      H1714   1.084       .  S
C1708      S1710   1.809       .  S
S1709      H1712   1.406       .  S
S1710      H1711   1.408       .  S
C1715      C1716   1.423       .  A
C1715      C1720   1.430       .  A
C1716      C1717   1.389       .  A
C1716      H1725   1.074       .  S
C1717      C1718   1.398       .  A
C1717      S1721   1.807       .  S
C1718      C1719   1.404       .  A
C1719      C1720   1.413       .  A
C1719      H1726   1.083       .  S
C1720      S1722   1.798       .  S
S1721      H1724   1.405       .  S
S1722      H1723   1.407       .  S
C1727      C1728   1.391       .  A
C1727      C1732   1.408       .  A
C1728      C1729   1.400       .  A
C1728      H1737   1.085       .  S
C1729      C1730   1.437       .  A
C1729      S1733   1.796       .  S
C1730      C1731   1.417       .  A
C1731      C1732   1.401       .  A
C1731      H1738   1.080       .  S
C1732      S1734   1.804       .  S
S1733      H1736   1.388       .  S
S1734      H1735   1.406       .  S
C1739      C1740   1.407       .  A
C1739      C1744   1.426       .  A
C1740      C1741   1.391       .  A
C1740      H1749   1.077       .  S
C1741      C1742   1.432       .  A
C1741      S1745   1.819       .  S
C1742      C1743   1.418       .  A
C1743      C1744   1.398       .  A
C1743      H1750   1.075       .  S
C1744      S1746   1.801       .  S
S1745      H1748   1.397       .  S
S1746      H1747   1.407       .  S
C1751      C1752   1.396       .  A
C1751      C1756   1.410       .  A
C1752      C1753   1.400       .  A
C1752      H1761   1.084       .  S
C1753      C1754   1.448       .  A
C1753      S1757   1.815       .  S
C1754      C1755   1.419       .  A
C1755      C1756   1.404       .  A
C1755      H1762   1.076       .  S
C1756      S1758   1.799       .  S
S1757      H1760   1.394       .  S
S1758      H1759   1.408       .  S
C1763      C1764   1.393       .  A
C1763      C1768   1.402       .  A
C1764      C1765   1.402       .  A
C1764      H1773   1.085       .  S
C1765      C1766   1.444       .  A
C1765      S1769   1.807       .  S
C1766      C1767   1.422       .  A
C1767      C1768   1.395       .  A
C1767      H1774   1.075       .  S
C1768      S1770   1.808       .  S
S1769      H1772   1.398       .  S
S1770      H1771   1.404       .  S
C1775      C1776   1.431       .  A
C1775      C1780   1.442       .  A
C1776      C1777   1.386       .  A
C1776      H1785   1.071       .  S
C1777      C1778   1.394       .  A
C1777      S1781   1.809       .  S
C1778      C1779   1.401       .  A
C1779      C1780   1.414       .  A
C1779      H1786   1.084       .  S
C1780      S1782   1.813       .  S
S1781      H1784   1.405       .  S
S1782      H1783   1.392       .  S
C1787      C1835   1.580       .  S
C1787      C2050   1.424       .  A
C1787      C1792   1.430       .  A
C1788      C2049   1.424   1_554  A
C1788      C1789   1.391       .  A
C1788      H1797   1.076       .  S
C1789      C2052   1.404   1_554  A
C1789      S1793   1.804       .  S
C1790      C2051   1.404       .  A
C1790      C1791   1.401       .  A
C1791      C1792   1.404       .  A
C1791      H1798   1.082       .  S
C1792      S1794   1.803       .  S
S1793      H1796   1.408       .  S
S1794      H1795   1.406       .  S
C1799      C1800   1.396       .  A
C1799      C1804   1.404       .  A
C1800      C1801   1.399       .  A
C1800      H1809   1.085       .  S
C1801      C1802   1.445       .  A
C1801      S1805   1.815       .  S
C1802      C1835   1.560       .  S
C1802      C1803   1.421       .  A
C1803      C1804   1.390       .  A
C1803      H1810   1.082       .  S
C1804      S1806   1.803       .  S
S1805      H1808   1.393       .  S
S1806      H1807   1.406       .  S
C1811      C1835   1.563       .  S
C1811      C1812   1.419       .  A
C1811      C1816   1.439       .  A
C1812      C1813   1.387       .  A
C1812      H2083   1.077       .  S
C1813      C1814   1.403       .  A
C1813      S2079   1.804       .  S
C1814      C1815   1.398       .  A
C1815      C1816   1.402       .  A
C1815      H1822   1.084       .  S
C1816      S1818   1.804       .  S
S1817      C2075   1.804       .  S
S1817      H2082   1.408       .  S
S1818      H1819   1.400       .  S
H1820      S2079   1.408       .  S
H1821      C2074   1.077       .  S
C1823      C1824   1.414       .  A
C1823      C1828   1.433       .  A
C1824      C1825   1.393       .  A
C1824      H1833   1.073       .  S
C1825      C1826   1.429       .  A
C1825      S1829   1.817       .  S
C1826      C1827   1.410       .  A
C1827      C1828   1.389       .  A
C1827      H1834   1.079       .  S
C1828      S1830   1.815       .  S
S1829      H1832   1.408       .  S
S1830      H1831   1.394       .  S
C1835      C2088   1.575       .  S
C1836      C2016   1.587       .  S
C1836      C2028   1.584       .  S
C1836      C2037   1.591       .  S
C1836      C2085   1.568       .  S
C1837      C1965   1.586       .  S
C1837      C1977   1.587       .  S
C1837      C1992   1.578       .  S
C1837      C2001   1.564       .  S
C1838      C1932   1.622       .  S
C1838      C1941   1.584       .  S
C1838      C1953   1.588       .  S
C1838      C2004   1.562       .  S
N1839      N1840   1.316       .  A
N1839      N1845   1.313       .  A
N1840      C1847   1.350       .  A
N1841      N1842   1.323       .  A
N1842      C1848   1.354   1_665  A
N1843      N1844   1.325       .  A
N1845      N1846   1.319       .  A
N1846      C1847   1.353       .  A
C1847      C2076   1.473       .  S
C1848      C1903   1.482       .  S
N1849      N1855   1.316       .  A
N1849      N1850   1.316       .  A
N1849     Mn1879   2.186       .  S
N1850      C1858   1.348       .  A
N1851      N1852   1.317       .  A
N1851      N1853   1.320       .  A
N1851     Mn1857   2.194       .  S
N1852      C1859   1.346       .  A
N1853      N1854   1.325       .  A
N1853     Mn1879   2.231       .  S
N1854      C1859   1.358       .  A
N1855      N1856   1.319       .  A
N1855     Mn1857   2.188       .  S
N1856      C1858   1.352       .  A
C1858      C2061   1.469       .  S
C1859      C1989   1.473       .  S
N1860      N1861   1.319       .  A
N1860      N1866   1.314       .  A
N1860     Mn1868   2.192       .  S
N1861      C1869   1.354       .  A
N1862      N1864   1.317       .  A
N1862      N1863   1.319       .  A
N1862     Mn1880   2.210       .  S
N1863      C1870   1.356       .  A
N1864      N1865   1.321       .  A
N1864     Mn1868   2.201       .  S
N1865      C1870   1.351       .  A
N1866      N1867   1.317       .  A
N1866     Mn1880   2.188       .  S
N1867      C1869   1.351       .  A
C1869      C2052   1.479       .  S
C1870      C1968   1.478       .  S
N1871      N1872   1.327       .  A
N1871     Mn1879   2.231       .  S
N1873      N1874   1.321       .  A
N1873      N1875   1.316       .  A
N1874      C1883   1.353       .  A
N1875      N1876   1.323       .  A
N1876      C1883   1.355       .  A
N1877      N1878   1.324       .  A
N1877     Mn1880   2.212       .  S
C1882      C1915   1.487       .  S
C1883      C1980   1.475       .  S
N1884      N1885   1.320       .  A
N1884      N1890   1.314       .  A
N1884     Mn1913   2.202       .  S
N1885      C1892   1.357       .  A
N1886      N1888   1.318       .  A
N1886      N1887   1.323       .  A
N1886     Mn1902   2.214       .  S
N1887      C1893   1.356       .  A
N1888      N1889   1.317       .  A
N1888     Mn1913   2.194       .  S
N1889      C1893   1.347       .  A
N1890      N1891   1.315       .  A
N1890     Mn1902   2.173       .  S
N1891      C1892   1.345       .  A
C1892      C1956   1.475       .  S
C1893      C2025   1.467       .  S
N1894      N1895   1.325       .  A
N1894     Mn1924   2.223       .  S
N1896      N1897   1.321       .  A
N1896      N1898   1.316       .  A
N1897      C1904   1.353       .  A
N1898      N1899   1.322       .  A
N1899      C1904   1.354       .  A
N1900      N1901   1.323       .  A
N1900     Mn1902   2.209       .  S
N1901      C1903   1.353   1_665  A
C1904      C2040   1.473       .  S
N1905      N1906   1.322       .  A
N1905      N1911   1.313       .  A
N1906      C1914   1.353       .  A
N1907      N1908   1.325       .  A
N1907     Mn1925   2.235       .  S
N1909      N1910   1.325       .  A
N1909     Mn1913   2.220       .  S
N1911      N1912   1.316       .  A
N1912      C1914   1.355       .  A
C1914      C1944   1.488       .  S
N1916      N1917   1.318       .  A
N1916      N1922   1.316       .  A
N1916     Mn1924   2.193       .  S
N1917      C1927   1.350       .  A
N1918      N1919   1.321       .  A
N1918      N1920   1.317       .  A
N1918     Mn1925   2.215       .  S
N1919      C1928   1.353       .  A
N1920      N1921   1.321       .  A
N1920     Mn1924   2.213       .  S
N1921      C1928   1.357       .  A
N1922      N1923   1.322       .  A
N1922     Mn1925   2.209       .  S
N1923      C1927   1.356       .  A
C1927      C1929   1.483       .  S
C1928      C2013   1.493       .  S
C1929      C1930   1.396       .  A
C1929      C1934   1.394       .  A
C1930      C1931   1.408       .  A
C1930      H1939   1.085       .  S
C1931      C1932   1.450       .  A
C1931      S1935   1.801       .  S
C1932      C1933   1.442       .  A
C1933      C1934   1.393       .  A
C1933      H1940   1.072       .  S
C1934      S1936   1.807       .  S
S1935      H1938   1.394       .  S
S1936      H1937   1.408       .  S
C1941      C1942   1.425       .  A
C1941      C1946   1.443       .  A
C1942      C1943   1.404       .  A
C1942      H1951   1.081       .  S
C1943      C1944   1.409       .  A
C1943      S1947   1.801       .  S
C1944      C1945   1.392       .  A
C1945      C1946   1.395       .  A
C1945      H1952   1.083       .  S
C1946      S1948   1.807       .  S
S1947      H1950   1.408       .  S
S1948      H1949   1.407       .  S
C1953      C1954   1.405       .  A
C1953      C1958   1.449       .  A
C1954      C1955   1.396       .  A
C1954      H1963   1.066       .  S
C1955      C1956   1.411       .  A
C1955      S1959   1.800       .  S
C1956      C1957   1.390       .  A
C1957      C1958   1.393       .  A
C1957      H1964   1.085       .  S
C1958      S1960   1.816       .  S
S1959      H1962   1.408       .  S
S1960      H1961   1.398       .  S
C1965      C1966   1.422       .  A
C1965      C1970   1.447       .  A
C1966      C1967   1.407       .  A
C1966      H1975   1.077       .  S
C1967      C1968   1.407       .  A
C1967      S1971   1.803       .  S
C1968      C1969   1.387       .  A
C1969      C1970   1.393       .  A
C1969      H1976   1.084       .  S
C1970      S1972   1.809       .  S
S1971      H1974   1.406       .  S
S1972      H1973   1.408       .  S
C1977      C1978   1.423       .  A
C1977      C1982   1.430       .  A
C1978      C1979   1.389       .  A
C1978      H1987   1.074       .  S
C1979      C1980   1.398       .  A
C1979      S1983   1.807       .  S
C1980      C1981   1.404       .  A
C1981      C1982   1.413       .  A
C1981      H1988   1.083       .  S
C1982      S1984   1.798       .  S
S1983      H1986   1.405       .  S
S1984      H1985   1.407       .  S
C1989      C1990   1.391       .  A
C1989      C1994   1.408       .  A
C1990      C1991   1.400       .  A
C1990      H1999   1.085       .  S
C1991      C1992   1.437       .  A
C1991      S1995   1.796       .  S
C1992      C1993   1.417       .  A
C1993      C1994   1.401       .  A
C1993      H2000   1.080       .  S
C1994      S1996   1.804       .  S
S1995      H1998   1.388       .  S
S1996      H1997   1.406       .  S
C2001      C2002   1.407       .  A
C2001      C2006   1.426       .  A
C2002      C2003   1.391       .  A
C2002      H2011   1.077       .  S
C2003      C2004   1.432       .  A
C2003      S2007   1.819       .  S
C2004      C2005   1.418       .  A
C2005      C2006   1.398       .  A
C2005      H2012   1.075       .  S
C2006      S2008   1.801       .  S
S2007      H2010   1.397       .  S
S2008      H2009   1.407       .  S
C2013      C2014   1.396       .  A
C2013      C2018   1.410       .  A
C2014      C2015   1.400       .  A
C2014      H2023   1.084       .  S
C2015      C2016   1.448       .  A
C2015      S2019   1.815       .  S
C2016      C2017   1.419       .  A
C2017      C2018   1.404       .  A
C2017      H2024   1.076       .  S
C2018      S2020   1.799       .  S
S2019      H2022   1.394       .  S
S2020      H2021   1.408       .  S
C2025      C2026   1.393       .  A
C2025      C2030   1.402       .  A
C2026      C2027   1.402       .  A
C2026      H2035   1.085       .  S
C2027      C2028   1.444       .  A
C2027      S2031   1.807       .  S
C2028      C2029   1.422       .  A
C2029      C2030   1.395       .  A
C2029      H2036   1.075       .  S
C2030      S2032   1.808       .  S
S2031      H2034   1.398       .  S
S2032      H2033   1.404       .  S
C2037      C2038   1.431       .  A
C2037      C2042   1.442       .  A
C2038      C2039   1.386       .  A
C2038      H2047   1.071       .  S
C2039      C2040   1.394       .  A
C2039      S2043   1.809       .  S
C2040      C2041   1.401       .  A
C2041      C2042   1.414       .  A
C2041      H2048   1.084       .  S
C2042      S2044   1.813       .  S
S2043      H2046   1.405       .  S
S2044      H2045   1.392       .  S
C2049      C2054   1.430       .  A
C2050      C2051   1.391       .  A
C2050      H2059   1.076       .  S
C2051      S2055   1.804       .  S
C2052      C2053   1.401       .  A
C2053      C2054   1.404       .  A
C2053      H2060   1.082       .  S
C2054      S2056   1.803       .  S
S2055      H2058   1.408       .  S
S2056      H2057   1.406       .  S
C2061      C2062   1.396       .  A
C2061      C2066   1.404       .  A
C2062      C2063   1.399       .  A
C2062      H2071   1.085       .  S
C2063      C2064   1.445       .  A
C2063      S2067   1.815       .  S
C2064      C2065   1.421       .  A
C2065      C2066   1.390       .  A
C2065      H2072   1.082   1_556  S
C2066      S2068   1.803   1_556  S
S2067      H2070   1.393       .  S
S2068      H2069   1.406   1_554  S
C2073      C2074   1.419   1_556  A
C2073      C2078   1.439       .  A
C2074      C2075   1.387       .  A
C2075      C2076   1.403   1_554  A
C2076      C2077   1.398       .  A
C2077      C2078   1.402       .  A
C2077      H2084   1.084       .  S
C2078      S2080   1.804       .  S
S2080      H2081   1.400   1_556  S
C2085      C2086   1.414       .  A
C2085      C2090   1.433       .  A
C2086      C2087   1.393       .  A
C2086      H2095   1.073       .  S
C2087      C2088   1.429       .  A
C2087      S2091   1.817       .  S
C2088      C2089   1.410       .  A
C2089      C2090   1.389       .  A
C2089      H2096   1.079       .  S
C2090      S2092   1.815       .  S
S2091      H2094   1.408       .  S
S2092      H2093   1.394       .  S
