geometry optimzed in LAMMPS
_audit_creation_date              2020-11-30 
_audit_creation_method            'lammps2cif' 
_symmetry_space_group_name_H-M    'P1' 
_symmetry_Int_Tables_number       1 
_symmetry_cell_setting            triclinic 
loop_ 
_symmetry_equiv_pos_as_xyz 
  x,y,z 
_cell_length_a                    52.29511443 
_cell_length_b                    51.864091238066166 
_cell_length_c                    87.68061339517378 
_cell_angle_alpha                 90.05371769405734 
_cell_angle_beta                  90.06075872189243 
_cell_angle_gamma                 89.90099582612623 
loop_ 
_atom_site_label 
_atom_site_type_symbol 
_atom_site_fract_x 
_atom_site_fract_y 
_atom_site_fract_z 
_atom_site_charge 
N1          N  0.75353381  0.98168485  0.42365995    -0.26400
N2          N  0.76516923  0.96202289  0.41701528    -0.34300
C3          C  0.78742060  0.95741207  0.42428482     0.01900
C4          C  0.78995087  0.97503075  0.43610454     0.07900
C5          C  0.76803585  0.99006433  0.43534854    -0.05200
H6          H  0.80089641  0.94255826  0.42103170     0.08600
H7          H  0.76319527  0.00627363  0.44257021     0.09800
Cu8        Cu  0.75039750  0.94317789  0.39796847     0.44200
Cu9        Cu  0.71908529  0.99700830  0.41588922     0.42000
Cu10       Cu  0.69009111  0.96734691  0.38251864     0.43900
N11         N  0.73231900  0.92805631  0.37876686    -0.33800
N12         N  0.71033042  0.93658282  0.37323838    -0.28100
C13         C  0.70442774  0.92303120  0.36060619    -0.04200
C14         C  0.72368915  0.90519543  0.35799829     0.08000
C15         C  0.74098818  0.90894044  0.36976812     0.01800
H16         H  0.68759322  0.92631910  0.35369533     0.09500
H17         H  0.75879100  0.89873405  0.37158139     0.08600
N18         N  0.67533347  0.99985638  0.39328221    -0.35300
N19         N  0.68585567  0.01047991  0.40548184    -0.27500
C20         C  0.67193518  0.03116212  0.40961260    -0.02700
C21         C  0.65170741  0.03381865  0.39952907     0.05900
C22         C  0.65448890  0.01360174  0.38930415     0.04000
H23         H  0.67632891  0.04344062  0.41924293     0.09100
H24         H  0.64224437  0.00908153  0.37972189     0.07900
C25         C  0.72174398  0.77355329  0.27862608     0.03100
C26         C  0.71927754  0.77298031  0.26255460     0.03100
C27         C  0.72129555  0.74914025  0.25497938    -0.17400
C28         C  0.72473548  0.72594779  0.26298593     0.03100
C29         C  0.72546435  0.72636334  0.27905119     0.03100
C30         C  0.72435358  0.75016938  0.28663441    -0.17400
H31         H  0.72522807  0.75046990  0.29899593     0.05100
H32         H  0.72033204  0.74858414  0.24262600     0.05100
N33         N  0.71030169  0.51629089  0.42081393    -0.26400
N34         N  0.69883511  0.53488046  0.41308867    -0.34300
C35         C  0.67630241  0.54032313  0.41980457     0.01900
C36         C  0.67340216  0.52430421  0.43233402     0.07900
C37         C  0.69539225  0.50935356  0.43260344    -0.05200
H38         H  0.66281347  0.55454225  0.41568061     0.08600
H39         H  0.70013694  0.49426316  0.44063123     0.09800
Cu40       Cu  0.71446647  0.55129054  0.39355024     0.44200
Cu41       Cu  0.74536543  0.50067015  0.41463863     0.42000
Cu42       Cu  0.77807890  0.52965011  0.38224132     0.43900
N43         N  0.73439659  0.56598726  0.37494202    -0.33800
N44         N  0.75775472  0.55878734  0.37098560    -0.28100
C45         C  0.76510726  0.57273605  0.35876959    -0.04200
C46         C  0.74537260  0.58935990  0.35478515     0.08000
C47         C  0.72624895  0.58444686  0.36531461     0.01800
H48         H  0.78340136  0.57077363  0.35313423     0.09500
H49         H  0.70780136  0.59381001  0.36608559     0.08600
N50         N  0.79236292  0.49828060  0.39462270    -0.35300
N51         N  0.78015718  0.48763243  0.40622220    -0.27500
C52         C  0.79359426  0.46715955  0.41121531    -0.02700
C53         C  0.81541986  0.46473188  0.40241531     0.05900
C54         C  0.81402114  0.48485818  0.39201824     0.04000
H55         H  0.78772454  0.45479699  0.42050202     0.09100
H56         H  0.82742680  0.48911452  0.38298365     0.07900
N57         N  0.75276764  0.51477212  0.12115200    -0.26400
N58         N  0.76444644  0.53353244  0.12863333    -0.34300
C59         C  0.78679207  0.53876406  0.12165418     0.01900
C60         C  0.78934155  0.52252202  0.10918329     0.07900
C61         C  0.76736457  0.50760295  0.10925043    -0.05200
H62         H  0.80029577  0.55316798  0.12548367     0.08600
H63         H  0.76236477  0.49242363  0.10133334     0.09800
Cu64       Cu  0.74953038  0.55097704  0.14811053     0.44200
Cu65       Cu  0.71771493  0.49905516  0.12750191     0.42000
Cu66       Cu  0.68823761  0.52628651  0.16103033     0.43900
N67         N  0.72987727  0.56555210  0.16690372    -0.33800
N68         N  0.70743784  0.55672838  0.17146647    -0.28100
C69         C  0.69970732  0.57041249  0.18367646    -0.04200
C70         C  0.71817645  0.58866639  0.18705633     0.08000
C71         C  0.73704712  0.58499488  0.17616095     0.01800
H72         H  0.68197080  0.56716509  0.18971095     0.09500
H73         H  0.75464284  0.59572830  0.17496039     0.08600
N74         N  0.67248186  0.49580688  0.14874392    -0.35300
N75         N  0.68318410  0.48591061  0.13639742    -0.27500
C76         C  0.66851346  0.46644552  0.13122427    -0.02700
C77         C  0.64755024  0.46389463  0.14077627     0.05900
C78         C  0.65075666  0.48288037  0.15175988     0.04000
H79         H  0.67297455  0.45479977  0.12133233     0.09100
H80         H  0.63837795  0.48690928  0.16134614     0.07900
N81         N  0.69991264  0.98659036  0.12057475    -0.26400
N82         N  0.68713807  0.96729393  0.12683209    -0.34300
C83         C  0.66578372  0.96301328  0.11854668     0.01900
C84         C  0.66509059  0.98048347  0.10655418     0.07900
C85         C  0.68708130  0.99501992  0.10824930    -0.05200
H86         H  0.65153939  0.94865276  0.12128271     0.08600
H87         H  0.69311001  0.01102322  0.10122029     0.09800
Cu88       Cu  0.69863448  0.94868113  0.14694210     0.44200
Cu89       Cu  0.73345438  0.00242805  0.12922715     0.42000
Cu90       Cu  0.75529698  0.97616280  0.16456025     0.43900
N91         N  0.71411842  0.93561825  0.16762562    -0.33800
N92         N  0.73466722  0.94599587  0.17392383    -0.28100
C93         C  0.73982015  0.93387720  0.18712096    -0.04200
C94         C  0.72174885  0.91481936  0.18936500     0.08000
C95         C  0.70571601  0.91645832  0.17673904     0.01800
H96         H  0.75574853  0.93855020  0.19449943     0.09500
H97         H  0.68920634  0.90460122  0.17432151     0.08600
N98         N  0.77316526  0.00680009  0.15382601    -0.35300
N99         N  0.76522374  0.01662595  0.14075680    -0.27500
C100        C  0.78043197  0.03656993  0.13699109    -0.02700
C101        C  0.79884835  0.03938120  0.14827251     0.05900
C102        C  0.79360984  0.02012457  0.15872984     0.04000
H103        H  0.77810961  0.04820050  0.12684958     0.09100
H104        H  0.80377174  0.01617087  0.16922675     0.07900
C105        C  0.48529179  0.04353025  0.04023044    -0.10000
C106        C  0.50763403  0.03248406  0.04612828    -0.03900
C107        C  0.51735891  0.00920203  0.04060176    -0.10000
C108        C  0.50459035  0.99654235  0.02848456     0.11000
C109        C  0.48204032  0.00765244  0.02214176    -0.01800
C110        C  0.47225696  0.03117600  0.02808148     0.10800
C111        C  0.45003493  0.04183026  0.02155258    -0.11800
C112        C  0.43733235  0.02944202  0.00959403    -0.11800
C113        C  0.44651745  0.00606690  0.00358614     0.10800
C114        C  0.46920517  0.99513878  0.00987564    -0.01800
C115        C  0.51394468  0.97332893  0.02239682    -0.11900
C116        C  0.50130841  0.96100210  0.01045689    -0.11900
C117        C  0.47893552  0.97152614  0.00405773     0.11000
C118        C  0.46569770  0.95877120  0.99220148    -0.10000
C119        C  0.44318780  0.96946088  0.98634489    -0.03900
C120        C  0.43342498  0.99292025  0.99170535    -0.10000
H121        H  0.44227555  0.05991494  0.02563133     0.08200
H122        H  0.42012907  0.03829881  0.00513794     0.08200
H123        H  0.53118375  0.96448531  0.02681492     0.08400
H124        H  0.50921652  0.94301100  0.00632590     0.08400
H125        H  0.51731781  0.04187775  0.05556948     0.04800
H126        H  0.43318190  0.95940521  0.97727179     0.04800
N127        N  0.24575431  0.00730645  0.91468144    -0.26400
N128        N  0.25739154  0.02739297  0.90853181    -0.34300
C129        C  0.27916010  0.03203059  0.91633341     0.01900
C130        C  0.28139826  0.01399081  0.92795566     0.07900
C131        C  0.25983116  0.99864715  0.92649606    -0.05200
H132        H  0.29243796  0.04733285  0.91365700     0.08600
H133        H  0.25471580  0.98230381  0.93351005     0.09800
Cu134      Cu  0.24318984  0.04716663  0.88951254     0.44200
Cu135      Cu  0.21102547  0.99256563  0.90682550     0.42000
Cu136      Cu  0.18356149  0.02293898  0.87340363     0.43900
N137        N  0.22589596  0.06233316  0.86992749    -0.33800
N138        N  0.20437177  0.05331943  0.86405083    -0.28100
C139        C  0.19864859  0.06679458  0.85137241    -0.04200
C140        C  0.21740565  0.08522642  0.84907802     0.08000
C141        C  0.23436088  0.08182239  0.86111014     0.01800
H142        H  0.18202038  0.06334905  0.84431341     0.09500
H143        H  0.25167542  0.09259740  0.86328327     0.08600
N144        N  0.16615120  0.99261152  0.88501474    -0.35300
N145        N  0.17611922  0.98162987  0.89726775    -0.27500
C146        C  0.16041876  0.96268867  0.90199165    -0.02700
C147        C  0.13956240  0.96156870  0.89222435     0.05900
C148        C  0.14390234  0.98086672  0.88160548     0.04000
H149        H  0.16419169  0.95037430  0.91168671     0.09100
H150        H  0.13188968  0.98587190  0.87199709     0.07900
N151        N  0.20033695  0.49438848  0.91510158    -0.26400
N152        N  0.18915054  0.47342476  0.90965056    -0.34300
C153        C  0.16946129  0.46712579  0.91885481     0.01900
C154        C  0.16814093  0.48500855  0.93061990     0.07900
C155        C  0.18801612  0.50195719  0.92780638    -0.05200
H156        H  0.15683117  0.45093909  0.91696835     0.08600
H157        H  0.19314375  0.51872478  0.93448294     0.09800
Cu158      Cu  0.20072646  0.45467396  0.88964176     0.44200
Cu159      Cu  0.23216607  0.51225258  0.90546436     0.42000
Cu160      Cu  0.25632905  0.48329978  0.87142958     0.43900
N161        N  0.21652125  0.44104767  0.86921947    -0.33800
N162        N  0.23670204  0.45174704  0.86272275    -0.28100
C163        C  0.24249878  0.43870681  0.84992627    -0.04200
C164        C  0.22522385  0.41875041  0.84815252     0.08000
C165        C  0.20896428  0.42082904  0.86062478     0.01800
H166        H  0.25836212  0.44334090  0.84251507     0.09500
H167        H  0.19299780  0.40844018  0.86335338     0.08600
N168        N  0.27407166  0.51432897  0.88202992    -0.35300
N169        N  0.26515888  0.52522616  0.89457427    -0.27500
C170        C  0.28106996  0.54439814  0.89876250    -0.02700
C171        C  0.30102060  0.54558006  0.88834360     0.05900
C172        C  0.29585069  0.52620474  0.87790087     0.04000
H173        H  0.27838298  0.55640285  0.90872733     0.09100
H174        H  0.30717649  0.52096900  0.86805134     0.07900
C175        C  0.22938802  0.22720440  0.76004165     0.03100
C176        C  0.22912885  0.22704685  0.77617114     0.03100
C177        C  0.22609691  0.25044291  0.78405830    -0.17400
C178        C  0.22438934  0.27418641  0.77641660     0.03100
C179        C  0.22683349  0.27463482  0.76035294     0.03100
C180        C  0.22873035  0.25108757  0.75240957    -0.17400
H181        H  0.22978722  0.25137322  0.74005918     0.05100
H182        H  0.22514125  0.25015556  0.79641434     0.05100
N183        N  0.22104296  0.02059421  0.61334541    -0.26400
N184        N  0.20861469  0.03956406  0.62016711    -0.34300
C185        C  0.18666021  0.04418522  0.61263815     0.01900
C186        C  0.18495662  0.02722965  0.60047356     0.07900
C187        C  0.20719296  0.01257192  0.60126016    -0.05200
H188        H  0.17249165  0.05819795  0.61615340     0.08600
H189        H  0.21255309  0.99670518  0.59391000     0.09800
Cu190      Cu  0.22080308  0.05643882  0.64032831     0.44200
Cu191      Cu  0.25531741  0.00563648  0.62189284     0.42000
Cu192      Cu  0.27748826  0.03121861  0.65886641     0.43900
N193        N  0.23392609  0.06922450  0.66131967    -0.33800
N194        N  0.25445295  0.06015839  0.66832992    -0.28100
C195        C  0.25730166  0.07282952  0.68168556    -0.04200
C196        C  0.23759968  0.09069919  0.68307341     0.08000
C197        C  0.22323592  0.08775078  0.66993318     0.01800
H198        H  0.27275577  0.06952271  0.68965920     0.09500
H199        H  0.20630348  0.09848418  0.66674077     0.08600
N200        N  0.29626773  0.00223011  0.64652663    -0.35300
N201        N  0.28820939  0.99305569  0.63326676    -0.27500
C202        C  0.30433635  0.97434741  0.62862562    -0.02700
C203        C  0.32354731  0.97153366  0.63941413     0.05900
C204        C  0.31777845  0.98959045  0.65058136     0.04000
H205        H  0.30210753  0.96352811  0.61815912     0.09100
H206        H  0.32830322  0.99311732  0.66100365     0.07900
N207        N  0.24658262  0.47819623  0.61281602    -0.26400
N208        N  0.26097657  0.46105682  0.61996957    -0.34300
C209        C  0.28334863  0.45863600  0.61247321     0.01900
C210        C  0.28309015  0.47522196  0.60006682     0.07900
C211        C  0.25946575  0.48729017  0.60068793    -0.05200
H212        H  0.29893272  0.44632718  0.61608435     0.08600
H213        H  0.25227172  0.50193314  0.59301427     0.09800
Cu214      Cu  0.24985263  0.44336641  0.64024268     0.44200
Cu215      Cu  0.21052583  0.48947940  0.62030994     0.42000
Cu216      Cu  0.18802931  0.46388723  0.65610841     0.43900
N217        N  0.23476768  0.42992210  0.66075657    -0.33800
N218        N  0.21250647  0.43730949  0.66647143    -0.28100
C219        C  0.20858154  0.42488110  0.67974337    -0.04200
C220        C  0.22931928  0.40888699  0.68255976     0.08000
C221        C  0.24551359  0.41262130  0.67025868     0.01800
H222        H  0.19167541  0.42714534  0.68671358     0.09500
H223        H  0.26370896  0.40325964  0.66826078     0.08600
N224        N  0.16803204  0.49168506  0.64366915    -0.35300
N225        N  0.17630030  0.50063617  0.63045321    -0.27500
C226        C  0.16010199  0.51895150  0.62548052    -0.02700
C227        C  0.14068986  0.52194869  0.63607602     0.05900
C228        C  0.14632365  0.50424283  0.64747374     0.04000
H229        H  0.16277324  0.52990328  0.61511042     0.09100
H230        H  0.13580104  0.50111449  0.65792128     0.07900
C231        C  0.93335258  0.48142875  0.04313874    -0.10000
C232        C  0.94290993  0.45801808  0.04858581    -0.03900
C233        C  0.96614505  0.44795928  0.04345922    -0.10000
C234        C  0.98044094  0.46142843  0.03236372     0.11000
C235        C  0.97069279  0.48485960  0.02634088    -0.01800
C236        C  0.94707924  0.49497306  0.03177570     0.10800
C237        C  0.93762850  0.51799255  0.02548503    -0.11800
C238        C  0.95098543  0.53081556  0.01402637    -0.11800
C239        C  0.97438124  0.52119502  0.00850674     0.10800
C240        C  0.98451126  0.49812543  0.01480746    -0.01800
C241        C  0.00402943  0.45200230  0.02704037    -0.11900
C242        C  0.01783308  0.46528582  0.01594691    -0.11900
C243        C  0.00833015  0.48822009  0.00953565     0.11000
C244        C  0.02209169  0.50183798  0.99817810    -0.10000
C245        C  0.01178362  0.52464736  0.99221788    -0.03900
C246        C  0.98809728  0.53419063  0.99696375    -0.10000
H247        H  0.91966792  0.52616678  0.02928061     0.08200
H248        H  0.94287620  0.54850098  0.00958517     0.08200
H249        H  0.01205283  0.43425304  0.03145194     0.08400
H250        H  0.03607696  0.45740147  0.01245953     0.08400
H251        H  0.93228495  0.44762873  0.05724616     0.04800
H252        H  0.02196476  0.53471492  0.98324393     0.04800
C253        C  0.70508596  0.75182282  0.75865450     0.03100
C254        C  0.70413097  0.75390723  0.77473778     0.03100
C255        C  0.72706558  0.75369705  0.78315298    -0.17400
C256        C  0.75111434  0.75273260  0.77603791     0.03100
C257        C  0.75207312  0.75222023  0.75993857     0.03100
C258        C  0.72916351  0.75112420  0.75151595    -0.17400
H259        H  0.73013019  0.75045464  0.73916476     0.05100
H260        H  0.72617665  0.75476207  0.79549563     0.05100
N261        N  0.49349911  0.77682990  0.91461948    -0.26400
N262        N  0.51254813  0.78811630  0.90733200    -0.34300
C263        C  0.51947281  0.80947422  0.91502548     0.01900
C264        C  0.50405435  0.81176993  0.92779140     0.07900
C265        C  0.48781240  0.79069116  0.92714464    -0.05200
H266        H  0.53436901  0.82257526  0.91143514     0.08600
H267        H  0.47264439  0.78593711  0.93502370     0.09800
Cu268      Cu  0.52792222  0.77400693  0.88714024     0.44200
Cu269      Cu  0.47560998  0.74343604  0.90696518     0.42000
Cu270      Cu  0.50163745  0.71360472  0.87289867     0.43900
N271        N  0.54091175  0.75543751  0.86761076    -0.33800
N272        N  0.53168273  0.73332140  0.86250251    -0.28100
C273        C  0.54448808  0.72657395  0.84977859    -0.04200
C274        C  0.56258897  0.74535355  0.84669840     0.08000
C275        C  0.55973358  0.76333603  0.85827806     0.01800
H276        H  0.54083070  0.70927007  0.84323788     0.09500
H277        H  0.57055423  0.78088097  0.85988643     0.08600
N278        N  0.47026496  0.69905876  0.88478630    -0.35300
N279        N  0.46076186  0.71012516  0.89714305    -0.27500
C280        C  0.44037904  0.69655240  0.90191023    -0.02700
C281        C  0.43676822  0.67588459  0.89212443     0.05900
C282        C  0.45612211  0.67811092  0.88138925     0.04000
H283        H  0.42891544  0.70151467  0.91175218     0.09100
H284        H  0.45959826  0.66558423  0.87174045     0.07900
N285        N  0.95821363  0.72361353  0.92249116    -0.26400
N286        N  0.93962684  0.71066415  0.91572473    -0.34300
C287        C  0.93634710  0.68808104  0.92310714     0.01900
C288        C  0.95372428  0.68686427  0.93508657     0.07900
C289        C  0.96715385  0.70978751  0.93430934    -0.05200
H290        H  0.92264614  0.67349055  0.91982518     0.08600
H291        H  0.98280681  0.71576192  0.94156684     0.09800
Cu292      Cu  0.92068621  0.72451964  0.89633979     0.44200
Cu293      Cu  0.97226672  0.75863534  0.91480515     0.42000
Cu294      Cu  0.94556860  0.78465195  0.88006062     0.43900
N295        N  0.90568946  0.74252117  0.87690369    -0.33800
N296        N  0.91471661  0.76410119  0.87092841    -0.28100
C297        C  0.90087857  0.77004367  0.85840614    -0.04200
C298        C  0.88219011  0.75137861  0.85638100     0.08000
C299        C  0.88587809  0.73431390  0.86836448     0.01800
H300        H  0.90418077  0.78678010  0.85133078     0.09500
H301        H  0.87501295  0.71702735  0.87068318     0.08600
N302        N  0.97658261  0.80119604  0.89153851    -0.35300
N303        N  0.98604718  0.79166153  0.90433878    -0.27500
C304        C  0.00595242  0.80619745  0.90885724    -0.02700
C305        C  0.00933789  0.82591846  0.89842242     0.05900
C306        C  0.99032303  0.82212288  0.88758005     0.04000
H307        H  0.01729960  0.80247198  0.91894473     0.09100
H308        H  0.98678023  0.83360662  0.87750508     0.07900
N309        N  0.50119333  0.73118631  0.61081951    -0.26400
N310        N  0.51693687  0.71628910  0.61867836    -0.34300
C311        C  0.51899228  0.69333826  0.61154001     0.01900
C312        C  0.50365780  0.69378937  0.59860891     0.07900
C313        C  0.49272438  0.71812963  0.59855429    -0.05200
H314        H  0.53016535  0.67726710  0.61573591     0.08600
H315        H  0.47909469  0.72563672  0.59039087     0.09800
Cu316      Cu  0.53350427  0.72791117  0.63922393     0.44200
Cu317      Cu  0.49027256  0.76787621  0.61780323     0.42000
Cu318      Cu  0.51411747  0.79110664  0.65415954     0.43900
N319        N  0.54812245  0.74432456  0.65915426    -0.33800
N320        N  0.54123196  0.76710951  0.66461046    -0.28100
C321        C  0.55499130  0.77202454  0.67730999    -0.04200
C322        C  0.57140081  0.75142647  0.67995845     0.08000
C323        C  0.56641072  0.73427192  0.66820243     0.01800
H324        H  0.55352784  0.78958119  0.68392081     0.09500
H325        H  0.57570570  0.71592849  0.66620293     0.08600
N326        N  0.48661213  0.81068403  0.64117083    -0.35300
N327        N  0.47823901  0.80209539  0.62786608    -0.27500
C328        C  0.45976438  0.81793096  0.62271037    -0.02700
C329        C  0.45615564  0.83753802  0.63322234     0.05900
C330        C  0.47362110  0.83235362  0.64477996     0.04000
H331        H  0.44917107  0.81489314  0.61225844     0.09100
H332        H  0.47611877  0.84301402  0.65528284     0.07900
N333        N  0.96094533  0.76096185  0.61718400    -0.26400
N334        N  0.94210105  0.77367880  0.62391608    -0.34300
C335        C  0.93849002  0.79626599  0.61661016     0.01900
C336        C  0.95594274  0.79804874  0.60474845     0.07900
C337        C  0.96984092  0.77524706  0.60549445    -0.05200
H338        H  0.92449862  0.81060695  0.61990829     0.08600
H339        H  0.98550203  0.76951903  0.59818487     0.09800
Cu340      Cu  0.92288413  0.76043693  0.64331450     0.44200
Cu341      Cu  0.97438986  0.72487401  0.62440349     0.42000
Cu342      Cu  0.94381128  0.69809040  0.65758509     0.43900
N343        N  0.90816987  0.74314948  0.66299027    -0.33800
N344        N  0.91571868  0.72028109  0.66793676    -0.28100
C345        C  0.90300979  0.71448915  0.68080263    -0.04200
C346        C  0.88671075  0.73467878  0.68427449     0.08000
C347        C  0.89047261  0.75255284  0.67270793     0.01800
H348        H  0.90570752  0.69692240  0.68725531     0.09500
H349        H  0.88105875  0.77100868  0.67141817     0.08600
N350        N  0.97390741  0.68003197  0.64645487    -0.35300
N351        N  0.98509872  0.68961957  0.63419819    -0.27500
C352        C  0.00435231  0.67377147  0.63006676    -0.02700
C353        C  0.00544582  0.65334081  0.64028936     0.05900
C354        C  0.98580071  0.65802692  0.65050381     0.04000
H355        H  0.01707213  0.67729234  0.62057866     0.09100
H356        H  0.98073842  0.64650915  0.66032563     0.07900
N357        N  0.99203258  0.26881562  0.12411570    -0.26400
N358        N  0.00856400  0.28188889  0.13248019    -0.34300
C359        C  0.01403243  0.30419708  0.12541504     0.01900
C360        C  0.00023450  0.30524650  0.11194761     0.07900
C361        C  0.98651282  0.28243601  0.11148846    -0.05200
H362        H  0.02670785  0.31879666  0.12993434     0.08600
H363        H  0.97297768  0.27642128  0.10286220     0.09800
Cu364      Cu  0.02199165  0.26914232  0.15338598     0.44200
Cu365      Cu  0.97627305  0.23413637  0.13098064     0.42000
Cu366      Cu  0.99593372  0.20926974  0.16808498     0.43900
N367        N  0.03379995  0.25218404  0.17358429    -0.33800
N368        N  0.02469374  0.23024041  0.17897127    -0.28100
C369        C  0.03749819  0.22416925  0.19183124    -0.04200
C370        C  0.05549839  0.24321152  0.19463896     0.08000
C371        C  0.05249388  0.26065820  0.18282772     0.01800
H372        H  0.03432206  0.20687301  0.19844543     0.09500
H373        H  0.06353415  0.27792207  0.18078938     0.08600
N374        N  0.96688249  0.19318755  0.15480679    -0.35300
N375        N  0.95997583  0.20228373  0.14132585    -0.27500
C376        C  0.94002286  0.18859096  0.13606501    -0.02700
C377        C  0.93396433  0.16991083  0.14670069     0.05900
C378        C  0.95146186  0.17334212  0.15843267     0.04000
H379        H  0.93030547  0.19237311  0.12539762     0.09100
H380        H  0.95254880  0.16266777  0.16900474     0.07900
N381        N  0.46939978  0.22677864  0.12120637    -0.26400
N382        N  0.45006397  0.21399030  0.12724265    -0.34300
C383        C  0.44604249  0.19236668  0.11907061     0.01900
C384        C  0.46381582  0.19146177  0.10736181     0.07900
C385        C  0.47829887  0.21359776  0.10910636    -0.05200
H386        H  0.43154621  0.17818054  0.12165199     0.08600
H387        H  0.49424318  0.21967289  0.10213567     0.09800
Cu388      Cu  0.43094831  0.22633834  0.14670577     0.44200
Cu389      Cu  0.48302995  0.26141602  0.12983956     0.42000
Cu390      Cu  0.45424327  0.28533616  0.16476706     0.43900
N391        N  0.41566460  0.24191359  0.16657706    -0.33800
N392        N  0.42414438  0.26310942  0.17328606    -0.28100
C393        C  0.40974247  0.26781982  0.18573340    -0.04200
C394        C  0.39127340  0.24873245  0.18687926     0.08000
C395        C  0.39569965  0.23267943  0.17453024     0.01800
H396        H  0.41225494  0.28422668  0.19320607     0.09500
H397        H  0.38498487  0.21564373  0.17140980     0.08600
N398        N  0.48369277  0.30428864  0.15321256    -0.35300
N399        N  0.49395136  0.29547276  0.14044651    -0.27500
C400        C  0.51231452  0.31181040  0.13581459    -0.02700
C401        C  0.51382421  0.33199084  0.14613466     0.05900
C402        C  0.49535269  0.32655562  0.15702010     0.04000
H403        H  0.52381052  0.30901229  0.12570037     0.09100
H404        H  0.49082022  0.33786084  0.16703735     0.07900
C405        C  0.20466677  0.25125017  0.27780259     0.03100
C406        C  0.20413303  0.25210700  0.26169873     0.03100
C407        C  0.22729462  0.25159708  0.25354190    -0.17400
C408        C  0.25109753  0.25122023  0.26102393     0.03100
C409        C  0.25155447  0.25164464  0.27713189     0.03100
C410        C  0.22843548  0.25115852  0.28525516    -0.17400
H411        H  0.22897098  0.25121004  0.29762328     0.05100
H412        H  0.22677292  0.25197872  0.24117932     0.05100
N413        N  0.99473049  0.22581489  0.42171789    -0.26400
N414        N  0.01431746  0.21399319  0.41523378    -0.34300
C415        C  0.01813195  0.19115085  0.42217547     0.01900
C416        C  0.00002136  0.18839976  0.43359120     0.07900
C417        C  0.98552790  0.21078401  0.43294205    -0.05200
H418        H  0.03282617  0.17747393  0.41899325     0.08600
H419        H  0.96935472  0.21575591  0.44005050     0.09800
Cu420      Cu  0.03423945  0.22929727  0.39687067     0.44200
Cu421      Cu  0.98127919  0.26171924  0.41472563     0.42000
Cu422      Cu  0.01385361  0.29158321  0.38237938     0.43900
N423        N  0.05022342  0.24699093  0.37789398    -0.33800
N424        N  0.04280969  0.26954373  0.37240419    -0.28100
C425        C  0.05663909  0.27484269  0.35981025    -0.04200
C426        C  0.07359566  0.25465622  0.35730944     0.08000
C427        C  0.06894192  0.23744383  0.36903382     0.01800
H428        H  0.05450208  0.29211349  0.35301839     0.09500
H429        H  0.07832591  0.21912174  0.37094376     0.08600
N430        N  0.98324710  0.30837794  0.39402489    -0.35300
N431        N  0.97123637  0.29737077  0.40558399    -0.27500
C432        C  0.95170155  0.31261661  0.40996772    -0.02700
C433        C  0.95137789  0.33433281  0.40077197     0.05900
C434        C  0.97172427  0.33098287  0.39084156     0.04000
H435        H  0.93855424  0.30801874  0.41907859     0.09100
H436        H  0.97738598  0.34374463  0.38169954     0.07900
N437        N  0.45954780  0.26252940  0.41861716    -0.26400
N438        N  0.44176434  0.27462260  0.41061278    -0.34300
C439        C  0.43707996  0.29773134  0.41700502     0.01900
C440        C  0.45262347  0.30047074  0.42968476     0.07900
C441        C  0.46663010  0.27772548  0.43036081    -0.05200
H442        H  0.42353984  0.31165420  0.41259632     0.08600
H443        H  0.48118140  0.27270446  0.43861906     0.09800
Cu444      Cu  0.42501777  0.25969742  0.39107418     0.44200
Cu445      Cu  0.47399200  0.22634121  0.41259088     0.42000
Cu446      Cu  0.44652517  0.19760093  0.37811082     0.43900
N447        N  0.41096718  0.24176403  0.37167070    -0.33800
N448        N  0.41868199  0.21888579  0.36687360    -0.28100
C449        C  0.40615777  0.21295076  0.35391168    -0.04200
C450        C  0.38978924  0.23312102  0.35038767     0.08000
C451        C  0.39335712  0.25101255  0.36193445     0.01800
H452        H  0.40887432  0.19531616  0.34751102     0.09500
H453        H  0.38397156  0.26948304  0.36320151     0.08600
N454        N  0.47656270  0.18160247  0.39037423    -0.35300
N455        N  0.48657502  0.19178065  0.40286624    -0.27500
C456        C  0.50676780  0.17734238  0.40719502    -0.02700
C457        C  0.50967619  0.15725365  0.39687273     0.05900
C458        C  0.49010977  0.16058292  0.38642873     0.04000
H459        H  0.51899481  0.18177692  0.41679867     0.09100
H460        H  0.48644607  0.14906981  0.37636786     0.07900
C461        C  0.97924399  0.03202572  0.49439550    -0.10000
C462        C  0.95611870  0.02159620  0.48930324    -0.03900
C463        C  0.94683806  0.99814940  0.49482372    -0.10000
C464        C  0.96088368  0.98462952  0.50611031     0.11000
C465        C  0.98420338  0.99512392  0.51168636    -0.01800
C466        C  0.99349466  0.01885370  0.50575252     0.10800
C467        C  0.01651466  0.02889965  0.51149863    -0.11800
C468        C  0.03046140  0.01575005  0.52262582    -0.11800
C469        C  0.02177474  0.99218482  0.52861532     0.10800
C470        C  0.99832027  0.98179723  0.52316186    -0.01800
C471        C  0.95213874  0.96111334  0.51208445    -0.11900
C472        C  0.96601298  0.94799523  0.52326445    -0.11900
C473        C  0.98909135  0.95797216  0.52901702     0.11000
C474        C  0.00357643  0.94449240  0.54016735    -0.10000
C475        C  0.02696026  0.95473722  0.54505159    -0.03900
C476        C  0.03617037  0.97835754  0.53963203    -0.10000
H477        H  0.02397610  0.04708038  0.50742944     0.08200
H478        H  0.04826375  0.02420720  0.52641948     0.08200
H479        H  0.93442695  0.95262708  0.50813892     0.08400
H480        H  0.95854228  0.92977954  0.52726224     0.08400
H481        H  0.94540428  0.03162489  0.48050578     0.04800
H482        H  0.03799722  0.94436080  0.55355288     0.04800
C483        C  0.52324905  0.48313666  0.49329682    -0.10000
C484        C  0.51336320  0.45970099  0.48807301    -0.03900
C485        C  0.48966072  0.45047272  0.49296348    -0.10000
C486        C  0.47533421  0.46487105  0.50371375     0.11000
C487        C  0.48531491  0.48845977  0.50943869    -0.01800
C488        C  0.50925537  0.49775863  0.50410949     0.10800
C489        C  0.51879911  0.52104422  0.51001225    -0.11800
C490        C  0.50519451  0.53496464  0.52093485    -0.11800
C491        C  0.48167127  0.52598513  0.52655644     0.10800
C492        C  0.47151370  0.50258194  0.52068658    -0.01800
C493        C  0.45160122  0.45611027  0.50911131    -0.11900
C494        C  0.43801416  0.47002457  0.52006114    -0.11900
C495        C  0.44775692  0.49309408  0.52617794     0.11000
C496        C  0.43426130  0.50716049  0.53748418    -0.10000
C497        C  0.44429949  0.53049971  0.54283446    -0.03900
C498        C  0.46787259  0.53989919  0.53777588    -0.10000
H499        H  0.53700978  0.52866810  0.50631804     0.08200
H500        H  0.51332467  0.55291601  0.52492834     0.08200
H501        H  0.44336395  0.43830779  0.50494894     0.08400
H502        H  0.41968867  0.46253757  0.52364524     0.08400
H503        H  0.52419271  0.44854866  0.47981999     0.04800
H504        H  0.43415171  0.54095124  0.55169073     0.04800
C505        C  0.48023177  0.38269236  0.47643171     0.16800
C506        C  0.48384732  0.35722216  0.47148214    -0.32200
C507        C  0.46920385  0.34861667  0.45907312     0.21200
C508        C  0.45145144  0.36454179  0.45203810     0.03400
C509        C  0.44755981  0.38993016  0.45712540    -0.22000
C510        C  0.46246337  0.39865935  0.46941875     0.12600
S511        S  0.49792389  0.39741982  0.49028898    -0.05600
C512        C  0.48122155  0.42540154  0.48666159    -0.09100
C513        C  0.46285122  0.42322611  0.47531379    -0.25700
S514        S  0.43641819  0.35077990  0.43676520    -0.02900
C515        C  0.45436727  0.32328875  0.43979159    -0.16400
C516        C  0.47091242  0.32492320  0.45214126    -0.14300
H517        H  0.49802846  0.34489353  0.47677873     0.21000
H518        H  0.43402535  0.40254518  0.45147685     0.17100
H519        H  0.45145338  0.43911883  0.47105361     0.19600
H520        H  0.48386100  0.30978836  0.45572474     0.12900
C521        C  0.98231755  0.13566285  0.46261132     0.16800
C522        C  0.97064034  0.12034184  0.47375786    -0.32200
C523        C  0.98184449  0.09641351  0.47709655     0.21200
C524        C  0.00383184  0.08808800  0.46975721     0.03400
C525        C  0.01555948  0.10346536  0.45859238    -0.22000
C526        C  0.00421509  0.12737409  0.45516653     0.12600
S527        S  0.97131156  0.16504820  0.45676722    -0.05600
C528        C  0.99638150  0.16630655  0.44404169    -0.09100
C529        C  0.01236563  0.14486977  0.44446397    -0.25700
S530        S  0.01356181  0.05778551  0.47494449    -0.02900
C531        C  0.98768824  0.05636575  0.48710084    -0.16400
C532        C  0.97251366  0.07832308  0.48701175    -0.14300
H533        H  0.95333535  0.12664144  0.47943100     0.21000
H534        H  0.03252297  0.09690666  0.45266412     0.17100
H535        H  0.02901942  0.14214748  0.43731852     0.19600
H536        H  0.95492000  0.08043066  0.49340331     0.12900
C537        C  0.12712496  0.23878452  0.32867192     0.16800
C538        C  0.14828961  0.22840039  0.32103674    -0.32200
C539        C  0.15668266  0.24093814  0.30780782     0.21200
C540        C  0.14437481  0.26267674  0.30224396     0.03400
C541        C  0.12306282  0.27303891  0.30987280    -0.22000
C542        C  0.11486853  0.26068286  0.32327859     0.12600
S543        S  0.11467849  0.22676432  0.34515988    -0.05600
C544        C  0.09277329  0.25164057  0.34502223    -0.09100
C545        C  0.09511272  0.26820967  0.33264669    -0.25700
S546        S  0.15841032  0.27558515  0.28634920    -0.02900
C547        C  0.18122761  0.25155162  0.28734470    -0.16400
C548        C  0.17775503  0.23450801  0.29934390    -0.14300
H549        H  0.15810655  0.21153625  0.32538985     0.21000
H550        H  0.11361815  0.29025270  0.30571906     0.17100
H551        H  0.08313465  0.28490839  0.33063552     0.19600
H552        H  0.19053807  0.21868393  0.30201140     0.12900
C553        C  0.30649532  0.26149637  0.30528415     0.16800
C554        C  0.32135089  0.26922697  0.31773840    -0.32200
C555        C  0.34075084  0.25254944  0.32262407     0.21200
C556        C  0.34561428  0.22939719  0.31526040     0.03400
C557        C  0.33107972  0.22188649  0.30253075    -0.22000
C558        C  0.31124451  0.23837715  0.29781790     0.12600
S559        S  0.28027726  0.27773731  0.29890963    -0.05600
C560        C  0.27541668  0.25312569  0.28606875    -0.09100
C561        C  0.29351195  0.23356261  0.28660064    -0.25700
S562        S  0.36910461  0.21130609  0.32364925    -0.02900
C563        C  0.37213564  0.23513835  0.33728146    -0.16400
C564        C  0.35593501  0.25600564  0.33516541    -0.14300
H565        H  0.31728920  0.28701707  0.32375196     0.21000
H566        H  0.33444866  0.20358834  0.29691937     0.17100
H567        H  0.29284030  0.21616892  0.27977192     0.19600
H568        H  0.35478480  0.27262451  0.34260827     0.12900
C569        C  0.33304746  0.23570165  0.21265149     0.16800
C570        C  0.31023116  0.22673776  0.21913190    -0.32200
C571        C  0.30080854  0.23972648  0.23200121     0.21200
C572        C  0.31365646  0.26054710  0.23828304     0.03400
C573        C  0.33654348  0.26949428  0.23180800    -0.22000
C574        C  0.34583336  0.25666934  0.21880848     0.12600
S575        S  0.34712372  0.22302197  0.19675944    -0.05600
C576        C  0.37043609  0.24638624  0.19822620    -0.09100
C577        C  0.36732240  0.26289792  0.21058165    -0.25700
S578        S  0.29866344  0.27396106  0.25371977    -0.02900
C579        C  0.27475731  0.25130673  0.25165277    -0.16400
C580        C  0.27848746  0.23442541  0.23956601    -0.14300
H581        H  0.30006815  0.21055089  0.21422422     0.21000
H582        H  0.34647857  0.28594823  0.23656409     0.17100
H583        H  0.37990696  0.27879048  0.21332643     0.19600
H584        H  0.26533159  0.21923492  0.23638133     0.12900
C585        C  0.10491059  0.23546138  0.22698810     0.16800
C586        C  0.12095472  0.22653685  0.23872089    -0.32200
C587        C  0.14236556  0.24159434  0.24250327     0.21200
C588        C  0.14736058  0.26461081  0.23503295     0.03400
C589        C  0.13111343  0.27371515  0.22353581    -0.22000
C590        C  0.10995979  0.25854188  0.21963745     0.12600
S591        S  0.07896424  0.21933313  0.21990755    -0.05600
C592        C  0.07508527  0.24385864  0.20681469    -0.09100
C593        C  0.09288388  0.26353462  0.20816420    -0.25700
S594        S  0.17507762  0.27926320  0.24042187    -0.02900
C595        C  0.18009986  0.25421366  0.25293068    -0.16400
C596        C  0.16107763  0.23559730  0.25293833    -0.14300
H597        H  0.11730897  0.20834198  0.24435343     0.21000
H598        H  0.13521152  0.29150491  0.21756661     0.17100
H599        H  0.09379497  0.28034987  0.20088695     0.19600
H600        H  0.16146027  0.21821942  0.25977119     0.12900
C601        C  0.95864375  0.86013836  0.58031861     0.16800
C602        C  0.95519033  0.88480361  0.57398228    -0.32200
C603        C  0.97321612  0.89338453  0.56324046     0.21200
C604        C  0.99364045  0.87796051  0.55890685     0.03400
C605        C  0.99687319  0.85316891  0.56507254    -0.22000
C606        C  0.97900285  0.84470242  0.57592230     0.12600
S607        S  0.93980937  0.84679223  0.59416768    -0.05600
C608        C  0.95959565  0.82009231  0.59413846    -0.09100
C609        C  0.97957061  0.82169164  0.58372480    -0.25700
S610        S  0.01440591  0.89250339  0.54657448    -0.02900
C611        C  0.99535548  0.91968327  0.54713061    -0.16400
C612        C  0.97403999  0.91732287  0.55647074    -0.14300
H613        H  0.93949130  0.89702732  0.57755491     0.21000
H614        H  0.01301572  0.84125633  0.56184984     0.17100
H615        H  0.99413435  0.80707534  0.58216340     0.19600
H616        H  0.96052791  0.93271124  0.55870069     0.12900
C617        C  0.48121152  0.64344187  0.56915787     0.16800
C618        C  0.46780265  0.62918641  0.55815355    -0.32200
C619        C  0.47628405  0.60404510  0.55503029     0.21200
C620        C  0.49742636  0.59365990  0.56236365     0.03400
C621        C  0.51084487  0.60793807  0.57337658    -0.22000
C622        C  0.50211059  0.63295872  0.57667824     0.12600
S623        S  0.47342611  0.67392948  0.57489801    -0.05600
C624        C  0.49830573  0.67250047  0.58780557    -0.09100
C625        C  0.51196595  0.64951204  0.58742823    -0.25700
S626        S  0.50403227  0.56246439  0.55737350    -0.02900
C627        C  0.47794732  0.56337369  0.54534354    -0.16400
C628        C  0.46495342  0.58671072  0.54531801    -0.14300
H629        H  0.45119136  0.63717912  0.55247386     0.21000
H630        H  0.52707128  0.59971523  0.57932852     0.17100
H631        H  0.52810658  0.64502780  0.59470283     0.19600
H632        H  0.44765973  0.59046546  0.53888100     0.12900
C633        C  0.80751369  0.76273472  0.73230711     0.16800
C634        C  0.82279348  0.77143421  0.72023713    -0.32200
C635        C  0.84002500  0.75387607  0.71370876     0.21200
C636        C  0.84239136  0.72892799  0.71920361     0.03400
C637        C  0.82739294  0.72032858  0.73145523    -0.22000
C638        C  0.80974809  0.73773631  0.73777884     0.12600
S639        S  0.78347566  0.78018811  0.74046553    -0.05600
C640        C  0.77622302  0.75355771  0.75131943    -0.09100
C641        C  0.79188190  0.73239192  0.74881714    -0.25700
S642        S  0.86364671  0.71031893  0.70931366    -0.02900
C643        C  0.86916145  0.73628702  0.69747426    -0.16400
C644        C  0.85533361  0.75823156  0.70126070    -0.14300
H645        H  0.82064968  0.79076490  0.71574999     0.21000
H646        H  0.82880199  0.70067405  0.73553112     0.17100
H647        H  0.78927377  0.71369917  0.75407695     0.19600
H648        H  0.85612305  0.77631414  0.69512465     0.12900
C649        C  0.81136198  0.76265314  0.80112257     0.16800
C650        C  0.83311835  0.77208236  0.80879336    -0.32200
C651        C  0.84058527  0.75969543  0.82239921     0.21200
C652        C  0.82710256  0.73875007  0.82798073     0.03400
C653        C  0.80544703  0.72939200  0.82035135    -0.22000
C654        C  0.79787601  0.74186710  0.80689187     0.12600
S655        S  0.79831761  0.77542208  0.78480352    -0.05600
C656        C  0.77432217  0.75263168  0.78591006    -0.09100
C657        C  0.77672743  0.73611156  0.79828011    -0.25700
S658        S  0.83897307  0.72631435  0.84457110    -0.02900
C659        C  0.86243354  0.74962562  0.84422586    -0.16400
C660        C  0.86088368  0.76610093  0.83171464    -0.14300
H661        H  0.84356727  0.78851391  0.80445409     0.21000
H662        H  0.79475648  0.71321408  0.82482114     0.17100
H663        H  0.76321252  0.72102761  0.80105253     0.19600
H664        H  0.87388632  0.78188015  0.82952188     0.12900
C665        C  0.64918351  0.76744122  0.80245100     0.16800
C666        C  0.63459689  0.77625568  0.81478720    -0.32200
C667        C  0.61416794  0.76089207  0.81963483     0.21200
C668        C  0.60814873  0.73796195  0.81234935     0.03400
C669        C  0.62252528  0.72931077  0.79979814    -0.22000
C670        C  0.64332598  0.74449215  0.79510457     0.12600
S671        S  0.67623048  0.78208361  0.79604621    -0.05600
C672        C  0.68004272  0.75697187  0.78338301    -0.09100
C673        C  0.66092429  0.73846080  0.78398858    -0.25700
S674        S  0.58325552  0.72167028  0.82050785    -0.02900
C675        C  0.58112988  0.74591949  0.83395373    -0.16400
C676        C  0.59875278  0.76559256  0.83196511    -0.14300
H677        H  0.63951501  0.79391562  0.82069445     0.21000
H678        H  0.61819504  0.71116722  0.79425786     0.17100
H679        H  0.66077243  0.72088660  0.77731262     0.19600
H680        H  0.60057752  0.78229027  0.83929663     0.12900
C681        C  0.64473753  0.76227101  0.73385797     0.16800
C682        C  0.62318468  0.77220019  0.72625660    -0.32200
C683        C  0.61435559  0.75897884  0.71326914     0.21200
C684        C  0.62627134  0.73667480  0.70820123     0.03400
C685        C  0.64780503  0.72675591  0.71578618    -0.22000
C686        C  0.65681472  0.74015539  0.72864239     0.12600
S687        S  0.65911177  0.77602816  0.74942523    -0.05600
C688        C  0.68181639  0.75185303  0.74885161    -0.09100
C689        C  0.67810492  0.73417055  0.73713658    -0.25700
S690        S  0.61284170  0.72362770  0.69217853    -0.02900
C691        C  0.59104491  0.74865730  0.69209210    -0.16400
C692        C  0.59416367  0.76597917  0.70406481    -0.14300
H693        H  0.61393357  0.78969036  0.73016130     0.21000
H694        H  0.65735251  0.70953935  0.71170836     0.17100
H695        H  0.69070658  0.71806609  0.73477247     0.19600
H696        H  0.58243926  0.78291736  0.70589844     0.12900
C697        C  0.97589002  0.38182858  0.06167329     0.16800
C698        C  0.97249376  0.35673345  0.06721392    -0.32200
C699        C  0.98593580  0.34973685  0.08042710     0.21200
C700        C  0.00231433  0.36681079  0.08767818     0.03400
C701        C  0.00602185  0.39176381  0.08200609    -0.22000
C702        C  0.99234239  0.39887894  0.06891115     0.12600
S703        S  0.95926637  0.39490570  0.04680319    -0.05600
C704        C  0.97472275  0.42355694  0.05036993    -0.09100
C705        C  0.99186368  0.42286276  0.06239155    -0.25700
S706        S  0.01588564  0.35506424  0.10395342    -0.02900
C707        C  0.99920752  0.32685129  0.10104045    -0.16400
C708        C  0.98413840  0.32672902  0.08801002    -0.14300
H709        H  0.95931484  0.34353092  0.06176112     0.21000
H710        H  0.01842905  0.40529543  0.08781022     0.17100
H711        H  0.00218875  0.43943937  0.06668402     0.19600
H712        H  0.97209492  0.31089780  0.08440716     0.12900
C713        C  0.95981220  0.58628742  0.97084528     0.16800
C714        C  0.94750976  0.59996395  0.95911779    -0.32200
C715        C  0.95511611  0.62556273  0.95654205     0.21200
C716        C  0.97396233  0.63704515  0.96535305     0.03400
C717        C  0.98620952  0.62342003  0.97707667    -0.22000
C718        C  0.97880330  0.59780245  0.97954323     0.12600
S719        S  0.95435981  0.55466911  0.97527627    -0.05600
C720        C  0.97798023  0.55705246  0.98890879    -0.09100
C721        C  0.98938140  0.58107154  0.98988194    -0.25700
S722        S  0.98094688  0.66796045  0.96025863    -0.02900
C723        C  0.95839293  0.66552808  0.94596113    -0.16400
C724        C  0.94605323  0.64183919  0.94539294    -0.14300
H725        H  0.93297321  0.59091045  0.95213895     0.21000
H726        H  0.00118883  0.63227142  0.98381133     0.17100
H727        H  0.00512934  0.58573638  0.99742093     0.19600
H728        H  0.93155140  0.63662213  0.93713583     0.12900
C729        C  0.09096852  0.57567213  0.62927298     0.16800
C730        C  0.07663188  0.59633983  0.62349371    -0.32200
C731        C  0.05709344  0.60646429  0.63266716     0.21200
C732        C  0.05186495  0.59633282  0.64694722     0.03400
C733        C  0.06624362  0.57558373  0.65275533    -0.22000
C734        C  0.08595816  0.56553726  0.64358368     0.12600
S735        S  0.11577448  0.56124421  0.61995266    -0.05600
C736        C  0.11977625  0.54126605  0.63548377    -0.09100
C737        C  0.10242197  0.54569889  0.64721817    -0.25700
S738        S  0.02732844  0.61154039  0.65624185    -0.02900
C739        C  0.02428950  0.63195428  0.64077903    -0.16400
C740        C  0.04143034  0.62686006  0.62908599    -0.14300
H741        H  0.08068227  0.60433530  0.61235163     0.21000
H742        H  0.06234714  0.56774138  0.66395328     0.17100
H743        H  0.10206938  0.53526998  0.65790351     0.19600
H744        H  0.04246971  0.63753458  0.61850218     0.12900
C745        C  0.33273955  0.49747436  0.57045026     0.16800
C746        C  0.34714516  0.51110864  0.55965956    -0.32200
C747        C  0.37108079  0.50102307  0.55554352     0.21200
C748        C  0.38015375  0.47816403  0.56171702     0.03400
C749        C  0.36570274  0.46448645  0.57249656    -0.22000
C750        C  0.34191858  0.47480280  0.57680366     0.12600
S751        S  0.30364725  0.50698333  0.57728934    -0.05600
C752        C  0.30391834  0.48037109  0.58906829    -0.09100
C753        C  0.32550343  0.46493665  0.58754223    -0.25700
S754        S  0.41020602  0.46987138  0.55577074    -0.02900
C755        C  0.41061086  0.49756748  0.54489626    -0.16400
C756        C  0.38848660  0.51226712  0.54593840    -0.14300
H757        H  0.34021574  0.52907505  0.55490379     0.21000
H758        H  0.37293153  0.44688137  0.57755477     0.17100
H759        H  0.32908923  0.44750743  0.59398881     0.19600
H760        H  0.38572238  0.53071010  0.54038720     0.12900
C761        C  0.38268695  0.92731733  0.64389222     0.16800
C762        C  0.40497868  0.91452631  0.64872894    -0.32200
C763        C  0.41331141  0.89316508  0.64018225     0.21200
C764        C  0.40015304  0.88508368  0.62731036     0.03400
C765        C  0.37796040  0.89793829  0.62243458    -0.22000
C766        C  0.36952444  0.91914935  0.63104493     0.12600
S767        S  0.36900933  0.95315936  0.65290327    -0.05600
C768        C  0.34521078  0.95299749  0.63924197    -0.09100
C769        C  0.34808747  0.93380382  0.62830022    -0.25700
S770        S  0.41303150  0.85855279  0.61866256    -0.02900
C771        C  0.43634509  0.85802139  0.63260890    -0.16400
C772        C  0.43411525  0.87773536  0.64327753    -0.14300
H773        H  0.41520853  0.92076663  0.65881743     0.21000
H774        H  0.36755980  0.89150789  0.61244906     0.17100
H775        H  0.33505913  0.93049905  0.61890254     0.19600
H776        H  0.44682578  0.88049581  0.65289051     0.12900
C777        C  0.10351086  0.98995645  0.55599138     0.16800
C778        C  0.12865736  0.98705932  0.56133780    -0.32200
C779        C  0.13760666  0.00491698  0.57212155     0.21200
C780        C  0.12232436  0.02503716  0.57718026     0.03400
C781        C  0.09728788  0.02820045  0.57164228    -0.22000
C782        C  0.08818956  0.01008614  0.56102224     0.12600
S783        S  0.08843880  0.96888715  0.54401861    -0.05600
C784        C  0.06113788  0.98732938  0.54573023    -0.09100
C785        C  0.06383493  0.00874364  0.55511447    -0.25700
S786        S  0.13623310  0.04371307  0.59093948    -0.02900
C787        C  0.16288125  0.02406838  0.59001843    -0.16400
C788        C  0.16093073  0.00435323  0.57935684    -0.14300
H789        H  0.14045549  0.97106853  0.55762428     0.21000
H790        H  0.08516650  0.04362895  0.57578973     0.17100
H791        H  0.04846614  0.02188065  0.55800428     0.19600
H792        H  0.17544267  0.98985009  0.57732265     0.12900
C793        C  0.21823485  0.33717081  0.73707381     0.16800
C794        C  0.20867899  0.35893141  0.72941527    -0.32200
C795        C  0.22255145  0.36814477  0.71682545     0.21200
C796        C  0.24526344  0.35663787  0.71231293     0.03400
C797        C  0.25502243  0.33518122  0.72010969    -0.22000
C798        C  0.24082373  0.32557532  0.73242161     0.12600
S799        S  0.20312447  0.32148011  0.75169253    -0.05600
C800        C  0.22736770  0.29887974  0.75137358    -0.16300
C801        C  0.24613424  0.30368455  0.74057189    -0.25700
S802        S  0.25848612  0.36973040  0.69628949    -0.02900
C803        C  0.23288038  0.39067336  0.69539325    -0.16400
C804        C  0.21541944  0.38778243  0.70720692    -0.14300
H805        H  0.19074035  0.36770896  0.73276661     0.21000
H806        H  0.27244753  0.32579152  0.71638747     0.17100
H807        H  0.26241420  0.29124732  0.73846571     0.19600
H808        H  0.19800595  0.39888758  0.70846193     0.12900
C809        C  0.24149273  0.16453644  0.73720136     0.16800
C810        C  0.25160291  0.14206312  0.73053161    -0.32200
C811        C  0.24025191  0.13309950  0.71697835     0.21200
C812        C  0.21946111  0.14569213  0.71056118     0.03400
C813        C  0.20922770  0.16794397  0.71728687    -0.22000
C814        C  0.22086579  0.17715276  0.73062904     0.12600
S815        S  0.25345720  0.17960597  0.75306745    -0.05600
C816        C  0.23051949  0.20326350  0.75072243    -0.09100
C817        C  0.21453830  0.19929518  0.73829383    -0.25700
S818        S  0.20895516  0.13253905  0.69386971    -0.02900
C819        C  0.23309433  0.10996084  0.69526982    -0.16400
C820        C  0.24813877  0.11247628  0.70826554    -0.14300
H821        H  0.26800015  0.13238807  0.73546458     0.21000
H822        H  0.19328352  0.17803705  0.71211589     0.17100
H823        H  0.19937577  0.21231217  0.73485832     0.19600
H824        H  0.26431727  0.10029345  0.71102606     0.12900
C825        C  0.37990467  0.63008897  0.89898831     0.16800
C826        C  0.35779348  0.61775209  0.90432024    -0.32200
C827        C  0.34857243  0.59661185  0.89597028     0.21200
C828        C  0.36096324  0.58796688  0.88296288     0.03400
C829        C  0.38321847  0.60018396  0.87769169    -0.22000
C830        C  0.39230510  0.62150115  0.88596976     0.12600
S831        S  0.39356944  0.65653810  0.90723707    -0.05600
C832        C  0.41627844  0.65623402  0.89298088    -0.09100
C833        C  0.41323099  0.63638674  0.88247514    -0.25700
S834        S  0.34636082  0.56239500  0.87428080    -0.02900
C835        C  0.32314349  0.56341790  0.88825364    -0.16400
C836        C  0.32693495  0.58258700  0.89908965    -0.14300
H837        H  0.34799884  0.62456282  0.91442996     0.21000
H838        H  0.39282941  0.59357718  0.86747328     0.17100
H839        H  0.42546878  0.63313476  0.87271039     0.19600
H840        H  0.31439704  0.58632324  0.90865682     0.12900
C841        C  0.07788714  0.47552165  0.97423801     0.16800
C842        C  0.09246249  0.46343349  0.96280902    -0.32200
C843        C  0.11446716  0.47622574  0.95757604     0.21200
C844        C  0.12196894  0.49962909  0.96376578     0.03400
C845        C  0.10770567  0.51144137  0.97536205    -0.22000
C846        C  0.08540586  0.49901378  0.98029559     0.12600
S847        S  0.04880079  0.46503319  0.98068254    -0.05600
C848        C  0.04662209  0.49277563  0.99149317    -0.09100
C849        C  0.06768841  0.50887272  0.99023481    -0.25700
S850        S  0.14831310  0.51280548  0.95537976    -0.02900
C851        C  0.14918179  0.48676995  0.94314125    -0.16400
C852        C  0.13007311  0.46868856  0.94574531    -0.14300
H853        H  0.08630638  0.44543183  0.95774530     0.21000
H854        H  0.11317239  0.53006949  0.97989191     0.17100
H855        H  0.06909767  0.52770727  0.99551558     0.19600
H856        H  0.12733916  0.45128100  0.93912647     0.12900
C857        C  0.20845170  0.32768300  0.80532015     0.16800
C858        C  0.19908119  0.34187269  0.81776630    -0.32200
C859        C  0.21263817  0.36397995  0.82220164     0.21200
C860        C  0.23433426  0.37180994  0.81441720     0.03400
C861        C  0.24352278  0.35780195  0.80184081    -0.22000
C862        C  0.23017476  0.33548268  0.79753682     0.12600
S863        S  0.19595379  0.29922097  0.79904487    -0.05600
C864        C  0.22026992  0.29763743  0.78579751    -0.09100
C865        C  0.23698936  0.31837915  0.78623705    -0.25700
S866        S  0.24856541  0.39859377  0.82189264    -0.02900
C867        C  0.22520459  0.39924115  0.83578461    -0.16400
C868        C  0.20725369  0.37965836  0.83445293    -0.14300
H869        H  0.18234378  0.33555484  0.82398013     0.21000
H870        H  0.26069673  0.36369324  0.79591061     0.17100
H871        H  0.25384337  0.32021430  0.77915935     0.19600
H872        H  0.19133765  0.37677275  0.84214415     0.12900
C873        C  0.06420844  0.87453207  0.90453553     0.16800
C874        C  0.08536322  0.88856265  0.90984266    -0.32200
C875        C  0.09393645  0.90931453  0.90094092     0.21200
C876        C  0.08184636  0.91595501  0.88742578     0.03400
C877        C  0.06062072  0.90198432  0.88215106    -0.22000
C878        C  0.05216849  0.88109968  0.89099066     0.12600
S879        S  0.05120936  0.84842786  0.91350294    -0.05600
C880        C  0.02924674  0.84621814  0.89885191    -0.09100
C881        C  0.03210798  0.86494221  0.88766673    -0.25700
S882        S  0.09550484  0.94143178  0.87815513    -0.02900
C883        C  0.11802587  0.94301694  0.89252480    -0.16400
C884        C  0.11464189  0.92478695  0.90394731    -0.14300
H885        H  0.09489378  0.88335830  0.92037214     0.21000
H886        H  0.05125870  0.90701650  0.87153952     0.17100
H887        H  0.02024484  0.86663350  0.87759303     0.19600
H888        H  0.12686523  0.92266961  0.91383803     0.12900
C889        C  0.21208646  0.13129528  0.81460299     0.16800
C890        C  0.20425241  0.14538516  0.80172980    -0.32200
C891        C  0.21927844  0.16650327  0.79727886     0.21200
C892        C  0.24131388  0.17303763  0.80519965     0.03400
C893        C  0.24935762  0.15870442  0.81790195    -0.22000
C894        C  0.23413073  0.13785108  0.82248307     0.12600
S895        S  0.19574684  0.10599583  0.82236684    -0.05600
C896        C  0.21875437  0.10423869  0.83646758    -0.09100
C897        C  0.23810394  0.12238765  0.83499462    -0.25700
S898        S  0.25579646  0.20045022  0.79885314    -0.02900
C899        C  0.23191449  0.20330894  0.78539624    -0.16400
C900        C  0.21387685  0.18373200  0.78578165    -0.14300
H901        H  0.18681420  0.14054472  0.79571315     0.21000
H902        H  0.26633443  0.16407206  0.82422649     0.17100
H903        H  0.25406180  0.12446036  0.84276883     0.19600
H904        H  0.19704546  0.18295129  0.77859328     0.12900
C905        C  0.47585013  0.89129127  0.97558932     0.16800
C906        C  0.47223486  0.86616869  0.97016681    -0.32200
C907        C  0.48835259  0.85749337  0.95848281     0.21200
C908        C  0.50772975  0.87284660  0.95271105     0.03400
C909        C  0.51183231  0.89779385  0.95843843    -0.22000
C910        C  0.49522378  0.90674757  0.96986514     0.12600
S911        S  0.45611829  0.90632536  0.98827266    -0.05600
C912        C  0.47405353  0.93376718  0.98585420    -0.09100
C913        C  0.49439610  0.93121936  0.97583252    -0.25700
S914        S  0.52372789  0.85943617  0.93766524    -0.02900
C915        C  0.50373818  0.83308932  0.93899695    -0.16400
C916        C  0.48613819  0.83462108  0.95078178    -0.14300
H917        H  0.45671417  0.85433917  0.97435546     0.21000
H918        H  0.52652580  0.91009492  0.95370536     0.17100
H919        H  0.50697214  0.94679641  0.97251219     0.19600
H920        H  0.47170415  0.82028062  0.95322307     0.12900
C921        C  0.45912643  0.09784854  0.06549893     0.16800
C922        C  0.44680839  0.11215426  0.07695179    -0.32200
C923        C  0.45882603  0.13476148  0.08211142     0.21200
C924        C  0.48186087  0.14292402  0.07598534     0.03400
C925        C  0.49406907  0.12873857  0.06450901    -0.22000
C926        C  0.48224210  0.10603655  0.05949567     0.12600
S927        S  0.44900027  0.06871030  0.05860731    -0.05600
C928        C  0.47630133  0.06756509  0.04761592    -0.09100
C929        C  0.49210735  0.08881912  0.04923005    -0.25700
S930        S  0.49362603  0.17051600  0.08390093    -0.02900
C931        C  0.46736255  0.17110749  0.09574883    -0.16400
C932        C  0.45041980  0.15084953  0.09350908    -0.14300
H933        H  0.42899004  0.10562213  0.08188682     0.21000
H934        H  0.51229974  0.13483554  0.05991967     0.17100
H935        H  0.51061637  0.09078808  0.04382345     0.19600
H936        H  0.43294559  0.14796757  0.09988585     0.12900
C937        C  0.37843931  0.01908113  0.96678893     0.16800
C938        C  0.36378211  0.03071622  0.95520865    -0.32200
C939        C  0.34005937  0.01952250  0.95150736     0.21200
C940        C  0.33117232  0.99797639  0.95917658     0.03400
C941        C  0.34567409  0.98651979  0.97082624    -0.22000
C942        C  0.36951915  0.99743433  0.97434664     0.12600
S943        S  0.40872950  0.02812991  0.97205494    -0.05600
C944        C  0.40941422  0.00236670  0.98449158    -0.09100
C945        C  0.38714687  0.98781918  0.98447745    -0.25700
S946        S  0.30242341  0.98674597  0.95270568    -0.02900
C947        C  0.30227455  0.01116150  0.93934897    -0.16400
C948        C  0.32354252  0.02720787  0.94012916    -0.14300
H949        H  0.37088466  0.04731023  0.94905304     0.21000
H950        H  0.33896646  0.96938608  0.97661615     0.17100
H951        H  0.38457701  0.97026120  0.99097149     0.19600
H952        H  0.32697036  0.04341892  0.93264506     0.12900
C953        C  0.87567530  0.12619039  0.13969088     0.16800
C954        C  0.85376923  0.11384719  0.13402954    -0.32200
C955        C  0.84419986  0.09281176  0.14229934     0.21200
C956        C  0.85585253  0.08454662  0.15564194     0.03400
C957        C  0.87766144  0.09695833  0.16133329    -0.22000
C958        C  0.88728736  0.11789943  0.15303952     0.12600
S959        S  0.89050812  0.15176078  0.13124686    -0.05600
C960        C  0.91262106  0.15132171  0.14586598    -0.09100
C961        C  0.90844872  0.13225576  0.15665934    -0.25700
S962        S  0.84154179  0.05856074  0.16391810    -0.02900
C963        C  0.81959351  0.05864524  0.14922750    -0.16400
C964        C  0.82334446  0.07804040  0.13855930    -0.14300
H965        H  0.84469009  0.12024826  0.12358962     0.21000
H966        H  0.88682131  0.09047164  0.17173014     0.17100
H967        H  0.92029528  0.12894270  0.16659929     0.19600
H968        H  0.81156530  0.08113951  0.12856708     0.12900
C969        C  0.61744701  0.99932272  0.07487064     0.16800
C970        C  0.60398982  0.01176820  0.06315625    -0.32200
C971        C  0.57992726  0.00197261  0.05913902     0.21200
C972        C  0.56979302  0.98046628  0.06629011     0.03400
C973        C  0.58337175  0.96788235  0.07797305    -0.22000
C974        C  0.60733537  0.97794893  0.08216676     0.12600
S975        S  0.64633711  0.00908172  0.08182604    -0.05600
C976        C  0.64487745  0.98429328  0.09489729    -0.09100
C977        C  0.62300890  0.96921042  0.09368860    -0.25700
S978        S  0.53952687  0.97273568  0.06037463    -0.02900
C979        C  0.54053647  0.99887427  0.04824363    -0.16400
C980        C  0.56325608  0.01258965  0.04881439    -0.14300
H981        H  0.61167119  0.02876957  0.05766840     0.21000
H982        H  0.57531821  0.95140122  0.08380907     0.17100
H983        H  0.61861033  0.95296091  0.10095976     0.19600
H984        H  0.56682980  0.03019783  0.04254213     0.12900
C985        C  0.55719355  0.39171481  0.15044484     0.16800
C986        C  0.57013691  0.41389416  0.15540252    -0.32200
C987        C  0.59141643  0.42204681  0.14691939     0.21200
C988        C  0.59926602  0.40890493  0.13396830     0.03400
C989        C  0.58615081  0.38691378  0.12891380    -0.22000
C990        C  0.56508246  0.37858079  0.13750166     0.12600
S991        S  0.53172018  0.37793953  0.15953392    -0.05600
C992        C  0.53176332  0.35407234  0.14581244    -0.09100
C993        C  0.55053509  0.35707012  0.13475465    -0.25700
S994        S  0.62602999  0.42134275  0.12558529    -0.02900
C995        C  0.62689241  0.44444059  0.13974833    -0.16400
C996        C  0.60711072  0.44250632  0.15025496    -0.14300
H997        H  0.56418846  0.42405990  0.16559512     0.21000
H998        H  0.59240118  0.37645657  0.11888892     0.17100
H999        H  0.55373396  0.34399029  0.12532030     0.19600
H1000       H  0.60456079  0.45506843  0.16000095     0.12900
C1001       C  0.86753811  0.49182391  0.06123107     0.16800
C1002       C  0.84297749  0.48812349  0.06717691    -0.32200
C1003       C  0.83507648  0.50427448  0.07909823     0.21200
C1004       C  0.85075090  0.52356998  0.08475635     0.03400
C1005       C  0.87527241  0.52755854  0.07864087    -0.22000
C1006       C  0.88333484  0.51112009  0.06680840     0.12600
S1007       S  0.88138177  0.47244610  0.04784618    -0.05600
C1008       C  0.90882989  0.49045553  0.04967496    -0.09100
C1009       C  0.90711518  0.51051974  0.06012342    -0.25700
S1010       S  0.83785264  0.54018209  0.09978494    -0.02900
C1011       C  0.81116190  0.52073386  0.09847627    -0.16400
C1012       C  0.81239361  0.50263514  0.08684118    -0.14300
H1013       H  0.83083996  0.47274431  0.06301671     0.21000
H1014       H  0.88777788  0.54229636  0.08320131     0.17100
H1015       H  0.92287698  0.52294141  0.06328977     0.19600
H1016       H  0.79772604  0.48855207  0.08433932     0.12900
C1017       C  0.86075755  0.40701967  0.40891323     0.16800
C1018       C  0.87247281  0.38384443  0.41339040    -0.32200
C1019       C  0.89629442  0.37773049  0.40692485     0.21200
C1020       C  0.90796185  0.39401625  0.39652492     0.03400
C1021       C  0.89630819  0.41722150  0.39211122    -0.22000
C1022       C  0.87243589  0.42325516  0.39849034     0.12600
S1023       S  0.83170947  0.41776802  0.41520799    -0.05600
C1024       C  0.83521093  0.44437800  0.40358870    -0.09100
C1025       C  0.85788605  0.44467764  0.39538003    -0.25700
S1026       S  0.93648599  0.38286922  0.38968801    -0.02900
C1027       C  0.93273385  0.35584749  0.40090274    -0.16400
C1028       C  0.91047025  0.35584699  0.40954260    -0.14300
H1029       H  0.86331693  0.37103433  0.42144907     0.21000
H1030       H  0.90533423  0.42989562  0.38392606     0.17100
H1031       H  0.86346611  0.45972370  0.38751662     0.19600
H1032       H  0.90467738  0.34046959  0.41712121     0.12900
C1033       C  0.61061480  0.52540862  0.45535197     0.16800
C1034       C  0.58576920  0.52970724  0.46088039    -0.32200
C1035       C  0.57612251  0.51230494  0.47170684     0.21200
C1036       C  0.59071718  0.49176762  0.47693058     0.03400
C1037       C  0.61566260  0.48775364  0.47160729    -0.22000
C1038       C  0.62515028  0.50490890  0.46064787     0.12600
S1039       S  0.62515841  0.54304481  0.44136707    -0.05600
C1040       C  0.65102396  0.52243656  0.44258710    -0.09100
C1041       C  0.64836649  0.50321870  0.45346951    -0.25700
S1042       S  0.57502692  0.47163038  0.48910429    -0.02900
C1043       C  0.54846213  0.49105387  0.48722382    -0.16400
C1044       C  0.55181590  0.51206247  0.47764684    -0.14300
H1045       H  0.57418699  0.54543424  0.45658343     0.21000
H1046       H  0.62689432  0.47145568  0.47547426     0.17100
H1047       H  0.66231480  0.48825354  0.45572014     0.19600
H1048       H  0.53689139  0.52563725  0.47463327     0.12900
C1049       C  0.70335315  0.82580988  0.23322895     0.16800
C1050       C  0.69456579  0.83933912  0.22039346    -0.32200
C1051       C  0.70776909  0.86172999  0.21614791     0.21200
C1052       C  0.72850386  0.87054459  0.22450959     0.03400
C1053       C  0.73702076  0.85725850  0.23752937    -0.22000
C1054       C  0.72410354  0.83456225  0.24161182     0.12600
S1055       S  0.69150698  0.79692633  0.23920862    -0.05600
C1056       C  0.71483171  0.79635051  0.25313410    -0.09100
C1057       C  0.73068157  0.81781794  0.25315265    -0.25700
S1058       S  0.74276055  0.89727471  0.21699892    -0.02900
C1059       C  0.72076666  0.89645619  0.20229900    -0.16400
C1060       C  0.70313942  0.87657135  0.20345087    -0.14300
H1061       H  0.67867455  0.83220646  0.21368835     0.21000
H1062       H  0.75352055  0.86385417  0.24389332     0.17100
H1063       H  0.74694747  0.82034589  0.26065454     0.19600
H1064       H  0.68815191  0.87271104  0.19524028     0.12900
C1065       C  0.73886908  0.67188614  0.23452982     0.16800
C1066       C  0.74870607  0.65712572  0.22246121    -0.32200
C1067       C  0.73248646  0.63890354  0.21565338     0.21200
C1068       C  0.70766818  0.63531065  0.22075697     0.03400
C1069       C  0.69787535  0.64995211  0.23290145    -0.22000
C1070       C  0.71401427  0.66835438  0.23962252     0.12600
S1071       S  0.75476723  0.69644998  0.24336341    -0.05600
C1072       C  0.72769189  0.70204859  0.25402856    -0.09100
C1073       C  0.70752065  0.68557638  0.25089913    -0.25700
S1074       S  0.69097522  0.61247845  0.21085062    -0.02900
C1075       C  0.71765958  0.60772922  0.19963265    -0.16400
C1076       C  0.73831273  0.62320740  0.20351450    -0.14300
H1077       H  0.76798002  0.66012543  0.21833070     0.21000
H1078       H  0.67837010  0.64744603  0.23675152     0.17100
H1079       H  0.68870147  0.68713627  0.25596170     0.19600
H1080       H  0.75665695  0.62298882  0.19780800     0.12900
C1081       C  0.71791759  0.67084540  0.30750510     0.16800
C1082       C  0.70933118  0.65442295  0.31910339    -0.32200
C1083       C  0.72730654  0.63816215  0.32608703     0.21200
C1084       C  0.75272708  0.63799980  0.32164297     0.03400
C1085       C  0.76135133  0.65442127  0.30996577    -0.22000
C1086       C  0.74335286  0.67088583  0.30303101     0.12600
S1087       S  0.69928244  0.69309317  0.29840963    -0.05600
C1088       C  0.72591042  0.70264678  0.28839705    -0.09100
C1089       C  0.74806425  0.68914531  0.29198358    -0.25700
S1090       S  0.77143159  0.61690048  0.33176110    -0.02900
C1091       C  0.74472752  0.60841029  0.34217500    -0.16400
C1092       C  0.72263017  0.62134997  0.33782737    -0.14300
H1093       H  0.68953847  0.65464172  0.32272182     0.21000
H1094       H  0.78125972  0.65461918  0.30659051     0.17100
H1095       H  0.76674052  0.69327502  0.28726986     0.19600
H1096       H  0.70402526  0.61867269  0.34297996     0.12900
C1097       C  0.56003142  0.10436473  0.38962861     0.16800
C1098       C  0.57509314  0.08428564  0.38373071    -0.32200
C1099       C  0.59627578  0.07621489  0.39234681     0.21200
C1100       C  0.60228845  0.08776533  0.40615548     0.03400
C1101       C  0.58728744  0.10789836  0.41201949    -0.22000
C1102       C  0.56602716  0.11586398  0.40345432     0.12600
S1103       S  0.53342002  0.11674270  0.38102173    -0.05600
C1104       C  0.53030006  0.13773827  0.39618575    -0.09100
C1105       C  0.54905652  0.13502684  0.40728157    -0.25700
S1106       S  0.62856594  0.07507091  0.41495050    -0.02900
C1107       C  0.63144285  0.05372667  0.39995822    -0.16400
C1108       C  0.61294687  0.05666744  0.38871364    -0.14300
H1109       H  0.57040634  0.07524105  0.37295027     0.21000
H1110       H  0.59190866  0.11686650  0.42283227     0.17100
H1111       H  0.55028605  0.14645513  0.41759205     0.19600
H1112       H  0.61162959  0.04506606  0.37847456     0.12900
C1113       C  0.89111090  0.97235320  0.47072073     0.16800
C1114       C  0.87597514  0.96114508  0.45925783    -0.32200
C1115       C  0.85126209  0.97114309  0.45698559     0.21200
C1116       C  0.84193860  0.99121547  0.46583648     0.03400
C1117       C  0.85699708  0.00232235  0.47733753    -0.22000
C1118       C  0.88177643  0.99253081  0.47949307     0.12600
S1119       S  0.92226267  0.96439244  0.47451986    -0.05600
C1120       C  0.92270658  0.98856291  0.48801997    -0.09100
C1121       C  0.89982552  0.00191836  0.48940098    -0.25700
S1122       S  0.81182394  0.00112071  0.46100459    -0.02900
C1123       C  0.81171793  0.97810500  0.44678827    -0.16400
C1124       C  0.83399705  0.96350246  0.44605725    -0.14300
H1125       H  0.88335024  0.94571404  0.45218352     0.21000
H1126       H  0.84991122  0.01829891  0.48408789     0.17100
H1127       H  0.89700355  0.01847002  0.49675320     0.19600
H1128       H  0.83760245  0.94836946  0.43782368     0.12900
C1129       C  0.71072884  0.83413689  0.30313922     0.16800
C1130       C  0.70030674  0.85460718  0.31163624    -0.32200
C1131       C  0.71463757  0.86402858  0.32403258     0.21200
C1132       C  0.73840634  0.85380163  0.32761597     0.03400
C1133       C  0.74891156  0.83364988  0.31904315    -0.22000
C1134       C  0.73446193  0.82397846  0.30686939     0.12600
S1135       S  0.69566308  0.81830974  0.28850166    -0.05600
C1136       C  0.72154730  0.79769390  0.28763258    -0.09100
C1137       C  0.74074798  0.80321157  0.29801699    -0.25700
S1138       S  0.75245348  0.86702762  0.34332738    -0.02900
C1139       C  0.72600225  0.88658036  0.34528981    -0.16400
C1140       C  0.70742159  0.88296459  0.33413748    -0.14300
H1141       H  0.68158105  0.86234112  0.30898059     0.21000
H1142       H  0.76727415  0.82535535  0.32200819     0.17100
H1143       H  0.75796684  0.79182205  0.29944522     0.19600
H1144       H  0.68944897  0.89330258  0.33356827     0.12900
loop_ 
_geom_bond_atom_site_label_1 
_geom_bond_atom_site_label_2 
_geom_bond_distance 
_geom_bond_site_symmetry_2 
_ccdc_geom_bond_type 
N1            N2   1.322       .  A
N1            C5   1.346       .  A
N1           Cu9   2.082       .  S
N2            C3   1.347       .  A
N2           Cu8   2.083       .  S
C3            C4   1.387       .  A
C3            H6   1.081       .  S
C4            C5   1.387       .  A
C4         C1123   1.482       .  S
C5            H7   1.082   1_565  S
Cu8          N11   2.083       .  S
Cu9          N19   2.082   1_565  S
Cu10         N12   2.079       .  S
Cu10         N18   2.079       .  S
N11          N12   1.323       .  A
N11          C15   1.345       .  A
N12          C13   1.347       .  A
C13          C14   1.385       .  A
C13          H16   1.082       .  S
C14          C15   1.385       .  A
C14        C1139   1.479       .  S
C15          H17   1.082       .  S
N18          N19   1.323   1_565  A
N18          C22   1.347   1_565  A
N19          C20   1.345       .  A
C20          C21   1.385       .  A
C20          H23   1.082       .  S
C21          C22   1.386       .  A
C21        C1107   1.479       .  S
C22          H24   1.082       .  S
C25          C26   1.415       .  A
C25          C30   1.408       .  A
C25        C1136   1.480       .  S
C26          C27   1.407       .  A
C26        C1056   1.485       .  S
C27          C28   1.405       .  A
C27          H32   1.085       .  S
C28          C29   1.409       .  A
C28        C1072   1.475       .  S
C29          C30   1.403       .  A
C29        C1088   1.479       .  S
C30          H31   1.085       .  S
N33          N34   1.321       .  A
N33          C37   1.345       .  A
N33         Cu41   2.076       .  S
N34          C35   1.347       .  A
N34         Cu40   2.082       .  S
C35          C36   1.387       .  A
C35          H38   1.082       .  S
C36          C37   1.386       .  A
C36        C1040   1.480       .  S
C37          H39   1.081       .  S
Cu40         N43   2.083       .  S
Cu41         N51   2.076       .  S
Cu42         N44   2.093       .  S
Cu42         N50   2.093       .  S
N43          N44   1.323       .  A
N43          C47   1.345       .  A
N44          C45   1.350       .  A
C45          C46   1.388       .  A
C45          H48   1.082       .  S
C46          C47   1.386       .  A
C46        C1091   1.484       .  S
C47          H49   1.081       .  S
N50          N51   1.323       .  A
N50          C54   1.348       .  A
N51          C52   1.346       .  A
C52          C53   1.384       .  A
C52          H55   1.082       .  S
C53          C54   1.388       .  A
C53        C1024   1.481       .  S
C54          H56   1.082       .  S
N57          N58   1.323       .  A
N57          C61   1.345       .  A
N57         Cu65   2.084       .  S
N58          C59   1.348       .  A
N58         Cu64   2.084       .  S
C59          C60   1.386       .  A
C59          H62   1.082       .  S
C60          C61   1.387       .  A
C60        C1011   1.481       .  S
C61          H63   1.081       .  S
Cu64         N67   2.084       .  S
Cu65         N75   2.084       .  S
Cu66         N68   2.083       .  S
Cu66         N74   2.083       .  S
N67          N68   1.323       .  A
N67          C71   1.347       .  A
N68          C69   1.346       .  A
C69          C70   1.385       .  A
C69          H72   1.082       .  S
C70          C71   1.387       .  A
C70        C1075   1.481       .  S
C71          H73   1.082       .  S
N74          N75   1.322       .  A
N74          C78   1.347       .  A
N75          C76   1.347       .  A
C76          C77   1.387       .  A
C76          H79   1.082       .  S
C77          C78   1.387       .  A
C77         C995   1.482       .  S
C78          H80   1.081       .  S
N81          N82   1.324       .  A
N81          C85   1.344       .  A
N81         Cu89   2.080   1_565  S
N82          C83   1.350       .  A
N82         Cu88   2.098       .  S
C83          C84   1.389       .  A
C83          H86   1.082       .  S
C84          C85   1.384       .  A
C84         C976   1.483       .  S
C85          H87   1.082   1_565  S
Cu88         N91   2.098       .  S
Cu89         N99   2.079       .  S
Cu90         N92   2.073       .  S
Cu90         N98   2.072   1_565  S
N91          N92   1.323       .  A
N91          C95   1.350       .  A
N92          C93   1.344       .  A
C93          C94   1.383       .  A
C93          H96   1.082       .  S
C94          C95   1.391       .  A
C94        C1059   1.483       .  S
C95          H97   1.082       .  S
N98          N99   1.321       .  A
N98         C102   1.344       .  A
N99         C100   1.347       .  A
C100        C101   1.388       .  A
C100        H103   1.082       .  S
C101        C102   1.384       .  A
C101        C963   1.478       .  S
C102        H104   1.082       .  S
C105        C106   1.399       .  A
C105        C110   1.417       .  A
C105        C928   1.480       .  S
C106        C107   1.396       .  A
C106        H125   1.085       .  S
C107        C108   1.416   1_545  A
C107        C979   1.484   1_545  S
C108        C109   1.424   1_565  A
C108        C115   1.404       .  A
C109        C110   1.421       .  A
C109        C114   1.424   1_545  A
C110        C111   1.407       .  A
C111        C112   1.397       .  A
C111        H121   1.082       .  S
C112        C113   1.405       .  A
C112        H122   1.082       .  S
C113        C114   1.425   1_545  A
C113        C120   1.420   1_544  A
C114        C117   1.420       .  A
C115        C116   1.393       .  A
C115        H123   1.082       .  S
C116        C117   1.407       .  A
C116        H124   1.082       .  S
C117        C118   1.413   1_554  A
C118        C119   1.398       .  A
C118        C912   1.476       .  S
C119        C120   1.400       .  A
C119        H126   1.085       .  S
C120        C944   1.488   1_565  S
N127        N128   1.323       .  A
N127        C131   1.347   1_545  A
N127       Cu135   2.088   1_545  S
N128        C129   1.349       .  A
N128       Cu134   2.093       .  S
C129        C130   1.389       .  A
C129        H132   1.082       .  S
C130        C131   1.387   1_545  A
C130        C947   1.486       .  S
C131        H133   1.082       .  S
Cu134       N137   2.093       .  S
Cu135       N145   2.087       .  S
Cu136       N138   2.086       .  S
Cu136       N144   2.086   1_545  S
N137        N138   1.323       .  A
N137        C141   1.349       .  A
N138        C139   1.347       .  A
C139        C140   1.386       .  A
C139        H142   1.082       .  S
C140        C141   1.389       .  A
C140        C896   1.484       .  S
C141        H143   1.082       .  S
N144        N145   1.323       .  A
N144        C148   1.347       .  A
N145        C146   1.347       .  A
C146        C147   1.387       .  A
C146        H149   1.082       .  S
C147        C148   1.387       .  A
C147        C883   1.483       .  S
C148        H150   1.082       .  S
N151        N152   1.324       .  A
N151        C155   1.345       .  A
N151       Cu159   2.086       .  S
N152        C153   1.350       .  A
N152       Cu158   2.095       .  S
C153        C154   1.388       .  A
C153        H156   1.082       .  S
C154        C155   1.385       .  A
C154        C851   1.483       .  S
C155        H157   1.082       .  S
Cu158       N161   2.094       .  S
Cu159       N169   2.086       .  S
Cu160       N162   2.078       .  S
Cu160       N168   2.077       .  S
N161        N162   1.323       .  A
N161        C165   1.350       .  A
N162        C163   1.344       .  A
C163        C164   1.384       .  A
C163        H166   1.082       .  S
C164        C165   1.390       .  A
C164        C867   1.482       .  S
C165        H167   1.082       .  S
N168        N169   1.321       .  A
N168        C172   1.346       .  A
N169        C170   1.348       .  A
C170        C171   1.389       .  A
C170        H173   1.082       .  S
C171        C172   1.386       .  A
C171        C835   1.483       .  S
C172        H174   1.082       .  S
C175        C176   1.414       .  A
C175        C180   1.409       .  A
C175        C816   1.487       .  S
C176        C177   1.405       .  A
C176        C899   1.481       .  S
C177        C178   1.405       .  A
C177        H182   1.085       .  S
C178        C179   1.415       .  A
C178        C864   1.483       .  S
C179        C180   1.409       .  A
C179        C800   1.485       .  S
C180        H181   1.084       .  S
N183        N184   1.321       .  A
N183        C187   1.349       .  A
N183       Cu191   2.090       .  S
N184        C185   1.345       .  A
N184       Cu190   2.072       .  S
C185        C186   1.385       .  A
C185        H188   1.082       .  S
C186        C187   1.390       .  A
C186        C787   1.483       .  S
C187        H189   1.082   1_545  S
Cu190       N193   2.072       .  S
Cu191       N201   2.091   1_545  S
Cu192       N194   2.094       .  S
Cu192       N200   2.095       .  S
N193        N194   1.322       .  A
N193        C197   1.343       .  A
N194        C195   1.351       .  A
C195        C196   1.390       .  A
C195        H198   1.082       .  S
C196        C197   1.383       .  A
C196        C819   1.481       .  S
C197        H199   1.082       .  S
N200        N201   1.325   1_545  A
N200        C204   1.349   1_545  A
N201        C202   1.347       .  A
C202        C203   1.387       .  A
C202        H205   1.082       .  S
C203        C204   1.387       .  A
C203        C768   1.485       .  S
C204        H206   1.082       .  S
N207        N208   1.322       .  A
N207        C211   1.346       .  A
N207       Cu215   2.080       .  S
N208        C209   1.348       .  A
N208       Cu214   2.085       .  S
C209        C210   1.387       .  A
C209        H212   1.082       .  S
C210        C211   1.385       .  A
C210        C752   1.480       .  S
C211        H213   1.082       .  S
Cu214       N217   2.086       .  S
Cu215       N225   2.080       .  S
Cu216       N218   2.088       .  S
Cu216       N224   2.087       .  S
N217        N218   1.324       .  A
N217        C221   1.347       .  A
N218        C219   1.347       .  A
C219        C220   1.386       .  A
C219        H222   1.081       .  S
C220        C221   1.386       .  A
C220        C803   1.481       .  S
C221        H223   1.082       .  S
N224        N225   1.322       .  A
N224        C228   1.350       .  A
N225        C226   1.344       .  A
C226        C227   1.385       .  A
C226        H229   1.082       .  S
C227        C228   1.389       .  A
C227        C736   1.483       .  S
C228        H230   1.082       .  S
C231        C232   1.397       .  A
C231        C236   1.416       .  A
C231       C1008   1.480       .  S
C232        C233   1.396       .  A
C232        H251   1.086       .  S
C233        C234   1.414       .  A
C233        C704   1.473       .  S
C234        C235   1.419       .  A
C234        C241   1.406   1_655  A
C235        C236   1.423       .  A
C235        C240   1.422       .  A
C236        C237   1.404       .  A
C237        C238   1.394       .  A
C237        H247   1.082       .  S
C238        C239   1.407       .  A
C238        H248   1.082       .  S
C239        C240   1.420       .  A
C239        C246   1.413   1_554  A
C240        C243   1.424   1_655  A
C241        C242   1.395       .  A
C241        H249   1.083       .  S
C242        C243   1.406       .  A
C242        H250   1.082       .  S
C243        C244   1.419   1_554  A
C244        C245   1.401       .  A
C244        C848   1.486       .  S
C245        C246   1.397   1_455  A
C245        H252   1.085       .  S
C246        C720   1.478       .  S
C253        C254   1.415       .  A
C253        C258   1.407       .  A
C253        C688   1.489       .  S
C254        C255   1.408       .  A
C254        C672   1.479       .  S
C255        C256   1.405       .  A
C255        H260   1.085       .  S
C256        C257   1.413       .  A
C256        C656   1.490       .  S
C257        C258   1.408       .  A
C257        C640   1.474       .  S
C258        H259   1.085       .  S
N261        N262   1.322       .  A
N261        C265   1.345       .  A
N261       Cu269   2.080       .  S
N262        C263   1.346       .  A
N262       Cu268   2.077       .  S
C263        C264   1.385       .  A
C263        H266   1.082       .  S
C264        C265   1.387       .  A
C264        C915   1.479       .  S
C265        H267   1.081       .  S
Cu268       N271   2.078       .  S
Cu269       N279   2.081       .  S
Cu270       N272   2.087       .  S
Cu270       N278   2.087       .  S
N271        N272   1.323       .  A
N271        C275   1.345       .  A
N272        C273   1.347       .  A
C273        C274   1.386       .  A
C273        H276   1.082       .  S
C274        C275   1.386       .  A
C274        C675   1.481       .  S
C275        H277   1.081       .  S
N278        N279   1.323       .  A
N278        C282   1.348       .  A
N279        C280   1.346       .  A
C280        C281   1.385       .  A
C280        H283   1.082       .  S
C281        C282   1.388       .  A
C281        C832   1.482       .  S
C282        H284   1.082       .  S
N285        N286   1.322       .  A
N285        C289   1.344       .  A
N285       Cu293   2.074       .  S
N286        C287   1.350       .  A
N286       Cu292   2.093       .  S
C287        C288   1.390       .  A
C287        H290   1.082       .  S
C288        C289   1.384       .  A
C288        C723   1.481       .  S
C289        H291   1.082       .  S
Cu292       N295   2.095       .  S
Cu293       N303   2.075       .  S
Cu294       N296   2.093       .  S
Cu294       N302   2.093       .  S
N295        N296   1.324       .  A
N295        C299   1.347       .  A
N296        C297   1.350       .  A
C297        C298   1.388       .  A
C297        H300   1.082       .  S
C298        C299   1.388       .  A
C298        C659   1.486       .  S
C299        H301   1.082       .  S
N302        N303   1.322       .  A
N302        C306   1.349       .  A
N303        C304   1.345   1_655  A
C304        C305   1.385       .  A
C304        H307   1.082       .  S
C305        C306   1.389   1_455  A
C305        C880   1.482       .  S
C306        H308   1.082       .  S
N309        N310   1.322       .  A
N309        C313   1.345       .  A
N309       Cu317   2.078       .  S
N310        C311   1.349       .  A
N310       Cu316   2.087       .  S
C311        C312   1.388       .  A
C311        H314   1.082       .  S
C312        C313   1.385       .  A
C312        C624   1.481       .  S
C313        H315   1.082       .  S
Cu316       N319   2.088       .  S
Cu317       N327   2.078       .  S
Cu318       N320   2.096       .  S
Cu318       N326   2.095       .  S
N319        N320   1.324       .  A
N319        C323   1.347       .  A
N320        C321   1.349       .  A
C321        C322   1.389       .  A
C321        H324   1.082       .  S
C322        C323   1.386       .  A
C322        C691   1.485       .  S
C323        H325   1.082       .  S
N326        N327   1.323       .  A
N326        C330   1.350       .  A
N327        C328   1.345       .  A
C328        C329   1.385       .  A
C328        H331   1.082       .  S
C329        C330   1.390       .  A
C329        C771   1.484       .  S
C330        H332   1.082       .  S
N333        N334   1.324       .  A
N333        C337   1.349       .  A
N333       Cu341   2.096       .  S
N334        C335   1.349       .  A
N334       Cu340   2.093       .  S
C335        C336   1.388       .  A
C335        H338   1.082       .  S
C336        C337   1.389       .  A
C336        C608   1.487       .  S
C337        H339   1.082       .  S
Cu340       N343   2.093       .  S
Cu341       N351   2.096       .  S
Cu342       N344   2.074       .  S
Cu342       N350   2.074       .  S
N343        N344   1.323       .  A
N343        C347   1.349       .  A
N344        C345   1.344       .  A
C345        C346   1.383       .  A
C345        H348   1.082       .  S
C346        C347   1.389       .  A
C346        C643   1.480       .  S
C347        H349   1.082       .  S
N350        N351   1.322       .  A
N350        C354   1.347       .  A
N351        C352   1.348   1_655  A
C352        C353   1.390       .  A
C352        H355   1.082       .  S
C353        C354   1.385   1_455  A
C353        C739   1.483       .  S
C354        H356   1.082       .  S
N357        N358   1.321   1_655  A
N357        C361   1.345       .  A
N357       Cu365   2.070       .  S
N358        C359   1.344       .  A
N358       Cu364   2.071       .  S
C359        C360   1.384       .  A
C359        H362   1.082       .  S
C360        C361   1.385   1_455  A
C360        C707   1.475   1_455  S
C361        H363   1.081       .  S
Cu364       N367   2.071       .  S
Cu365       N375   2.071       .  S
Cu366       N368   2.087   1_655  S
Cu366       N374   2.088       .  S
N367        N368   1.322       .  A
N367        C371   1.343       .  A
N368        C369   1.348       .  A
C369        C370   1.387       .  A
C369        H372   1.082       .  S
C370        C371   1.385       .  A
C370        C592   1.479       .  S
C371        H373   1.081       .  S
N374        N375   1.323       .  A
N374        C378   1.347       .  A
N375        C376   1.344       .  A
C376        C377   1.383       .  A
C376        H379   1.082       .  S
C377        C378   1.388       .  A
C377        C960   1.478       .  S
C378        H380   1.082       .  S
N381        N382   1.322       .  A
N381        C385   1.345       .  A
N381       Cu389   2.076       .  S
N382        C383   1.347       .  A
N382       Cu388   2.079       .  S
C383        C384   1.386       .  A
C383        H386   1.082       .  S
C384        C385   1.385       .  A
C384        C931   1.478       .  S
C385        H387   1.082       .  S
Cu388       N391   2.080       .  S
Cu389       N399   2.076       .  S
Cu390       N392   2.092       .  S
Cu390       N398   2.092       .  S
N391        N392   1.323       .  A
N391        C395   1.345       .  A
N392        C393   1.349       .  A
C393        C394   1.388       .  A
C393        H396   1.082       .  S
C394        C395   1.385       .  A
C394        C576   1.482       .  S
C395        H397   1.082       .  S
N398        N399   1.323       .  A
N398        C402   1.348       .  A
N399        C400   1.345       .  A
C400        C401   1.385       .  A
C400        H403   1.081       .  S
C401        C402   1.388       .  A
C401        C992   1.482       .  S
C402        H404   1.082       .  S
C405        C406   1.413       .  A
C405        C410   1.404       .  A
C405        C547   1.485       .  S
C406        C407   1.407       .  A
C406        C595   1.477       .  S
C407        C408   1.407       .  A
C407        H412   1.084       .  S
C408        C409   1.413       .  A
C408        C579   1.486       .  S
C409        C410   1.404       .  A
C409        C560   1.475       .  S
C410        H411   1.085       .  S
N413        N414   1.322   1_655  A
N413        C417   1.346       .  A
N413       Cu421   2.082       .  S
N414        C415   1.347       .  A
N414       Cu420   2.078       .  S
C415        C416   1.386       .  A
C415        H418   1.082       .  S
C416        C417   1.387   1_455  A
C416        C528   1.481   1_455  S
C417        H419   1.082       .  S
Cu420       N423   2.078       .  S
Cu421       N431   2.082       .  S
Cu422       N424   2.088       .  S
Cu422       N430   2.088   1_455  S
N423        N424   1.323       .  A
N423        C427   1.344       .  A
N424        C425   1.349       .  A
C425        C426   1.388       .  A
C425        H428   1.082       .  S
C426        C427   1.384       .  A
C426        C544   1.481       .  S
C427        H429   1.082       .  S
N430        N431   1.323       .  A
N430        C434   1.347       .  A
N431        C432   1.347       .  A
C432        C433   1.386       .  A
C432        H435   1.082       .  S
C433        C434   1.386       .  A
C433       C1027   1.481       .  S
C434        H436   1.082       .  S
N437        N438   1.322       .  A
N437        C441   1.348       .  A
N437       Cu445   2.090       .  S
N438        C439   1.345       .  A
N438       Cu444   2.073       .  S
C439        C440   1.384       .  A
C439        H442   1.082       .  S
C440        C441   1.389       .  A
C440        C515   1.481       .  S
C441        H443   1.082       .  S
Cu444       N447   2.073       .  S
Cu445       N455   2.090       .  S
Cu446       N448   2.074       .  S
Cu446       N454   2.075       .  S
N447        N448   1.321       .  A
N447        C451   1.343       .  A
N448        C449   1.347       .  A
C449        C450   1.385       .  A
C449        H452   1.082       .  S
C450        C451   1.385       .  A
C450        C563   1.477       .  S
C451        H453   1.081       .  S
N454        N455   1.323       .  A
N454        C458   1.344       .  A
N455        C456   1.348       .  A
C456        C457   1.388       .  A
C456        H459   1.082       .  S
C457        C458   1.383       .  A
C457       C1104   1.479       .  S
C458        H460   1.082       .  S
C461        C462   1.398       .  A
C461        C466   1.418       .  A
C461        C531   1.484       .  S
C462        C463   1.397   1_545  A
C462        H481   1.086       .  S
C463        C464   1.417       .  A
C463       C1120   1.482       .  S
C464        C465   1.422       .  A
C464        C471   1.405       .  A
C465        C466   1.423   1_565  A
C465        C470   1.426       .  A
C466        C467   1.405   1_655  A
C467        C468   1.395       .  A
C467        H477   1.082       .  S
C468        C469   1.407   1_545  A
C468        H478   1.082       .  S
C469        C470   1.423   1_455  A
C469        C476   1.418       .  A
C470        C473   1.424       .  A
C471        C472   1.396       .  A
C471        H479   1.082       .  S
C472        C473   1.407       .  A
C472        H480   1.082       .  S
C473        C474   1.420   1_655  A
C474        C475   1.401       .  A
C474        C611   1.489   1_455  S
C475        C476   1.401       .  A
C475        H482   1.085       .  S
C476        C784   1.486       .  S
C483        C484   1.398       .  A
C483        C488   1.417       .  A
C483       C1043   1.481       .  S
C484        C485   1.397       .  A
C484        H503   1.085       .  S
C485        C486   1.416       .  A
C485        C512   1.480       .  S
C486        C487   1.422       .  A
C486        C493   1.405       .  A
C487        C488   1.422       .  A
C487        C492   1.424       .  A
C488        C489   1.406       .  A
C489        C490   1.394       .  A
C489        H499   1.082       .  S
C490        C491   1.406       .  A
C490        H500   1.082       .  S
C491        C492   1.422       .  A
C491        C498   1.417       .  A
C492        C495   1.422       .  A
C493        C494   1.395       .  A
C493        H501   1.082       .  S
C494        C495   1.407       .  A
C494        H502   1.082       .  S
C495        C496   1.418       .  A
C496        C497   1.401       .  A
C496        C755   1.485       .  S
C497        C498   1.399       .  A
C497        H504   1.085       .  S
C498        C627   1.483       .  S
C505        C510   1.387       .  A
C505        C506   1.403       .  A
C505        S511   1.707       .  A
C506        C507   1.403       .  A
C506        H517   1.083       .  S
C507        C516   1.373       .  A
C507        C508   1.386       .  A
C508        C509   1.404       .  A
C508        S514   1.708       .  A
C509        C510   1.405       .  A
C509        H518   1.083       .  S
C510        C513   1.375       .  A
S511        C512   1.722       .  A
C512        C513   1.387       .  A
C513        H519   1.083       .  S
S514        C515   1.726       .  A
C515        C516   1.388       .  A
C516        H520   1.082       .  S
C521        C526   1.386   1_655  A
C521        C522   1.401       .  A
C521        S527   1.707       .  A
C522        C523   1.402       .  A
C522        H533   1.083       .  S
C523        C532   1.370       .  A
C523        C524   1.386   1_655  A
C524        C525   1.405       .  A
C524        S530   1.713       .  A
C525        C526   1.406       .  A
C525        H534   1.083       .  S
C526        C529   1.375       .  A
S527        C528   1.724       .  A
C528        C529   1.390   1_655  A
C529        H535   1.082       .  S
S530        C531   1.725   1_455  A
C531        C532   1.387       .  A
C532        H536   1.083       .  S
C537        C542   1.386       .  A
C537        C538   1.401       .  A
C537        S543   1.705       .  A
C538        C539   1.402       .  A
C538        H549   1.083       .  S
C539        C548   1.370       .  A
C539        C540   1.386       .  A
C540        C541   1.406       .  A
C540        S546   1.713       .  A
C541        C542   1.407       .  A
C541        H550   1.083       .  S
C542        C545   1.376       .  A
S543        C544   1.724       .  A
C544        C545   1.390       .  A
C545        H551   1.082       .  S
S546        C547   1.726       .  A
C547        C548   1.387       .  A
C548        H552   1.083       .  S
C553        C558   1.388       .  A
C553        C554   1.398       .  A
C553        S559   1.702       .  A
C554        C555   1.399       .  A
C554        H565   1.083       .  S
C555        C564   1.368       .  A
C555        C556   1.386       .  A
C556        C557   1.405       .  A
C556        S562   1.711       .  A
C557        C558   1.405       .  A
C557        H566   1.083       .  S
C558        C561   1.374       .  A
S559        C560   1.720       .  A
C560        C561   1.387       .  A
C561        H567   1.083       .  S
S562        C563   1.726       .  A
C563        C564   1.386       .  A
C564        H568   1.082       .  S
C569        C574   1.386       .  A
C569        C570   1.402       .  A
C569        S575   1.707       .  A
C570        C571   1.403       .  A
C570        H581   1.083       .  S
C571        C580   1.372       .  A
C571        C572   1.386       .  A
C572        C573   1.405       .  A
C572        S578   1.712       .  A
C573        C574   1.406       .  A
C573        H582   1.083       .  S
C574        C577   1.375       .  A
S575        C576   1.725       .  A
C576        C577   1.390       .  A
C577        H583   1.082       .  S
S578        C579   1.726       .  A
C579        C580   1.388       .  A
C580        H584   1.083       .  S
C585        C590   1.386       .  A
C585        C586   1.405       .  A
C585        S591   1.711       .  A
C586        C587   1.405       .  A
C586        H597   1.083       .  S
C587        C596   1.374       .  A
C587        C588   1.387       .  A
C588        C589   1.400       .  A
C588        S594   1.704       .  A
C589        C590   1.401       .  A
C589        H598   1.083       .  S
C590        C593   1.369       .  A
S591        C592   1.726       .  A
C592        C593   1.387       .  A
C593        H599   1.082       .  S
S594        C595   1.721       .  A
C595        C596   1.387       .  A
C596        H600   1.083       .  S
C601        C606   1.386       .  A
C601        C602   1.406       .  A
C601        S607   1.712       .  A
C602        C603   1.406       .  A
C602        H613   1.083       .  S
C603        C612   1.377       .  A
C603        C604   1.387       .  A
C604        C605   1.405       .  A
C604        S610   1.710   1_655  A
C605        C606   1.405       .  A
C605        H614   1.083   1_655  S
C606        C609   1.376       .  A
S607        C608   1.727       .  A
C608        C609   1.391       .  A
C609        H615   1.082       .  S
S610        C611   1.725   1_455  A
C611        C612   1.390       .  A
C612        H616   1.083       .  S
C617        C622   1.386       .  A
C617        C618   1.403       .  A
C617        S623   1.708       .  A
C618        C619   1.403       .  A
C618        H629   1.083       .  S
C619        C628   1.373       .  A
C619        C620   1.387       .  A
C620        C621   1.404       .  A
C620        S626   1.710       .  A
C621        C622   1.405       .  A
C621        H630   1.083       .  S
C622        C625   1.375       .  A
S623        C624   1.725       .  A
C624        C625   1.389       .  A
C625        H631   1.083       .  S
S626        C627   1.724       .  A
C627        C628   1.387       .  A
C628        H632   1.083       .  S
C633        C638   1.388       .  A
C633        C634   1.402       .  A
C633        S639   1.705       .  A
C634        C635   1.402       .  A
C634        H645   1.083       .  S
C635        C644   1.373       .  A
C635        C636   1.386       .  A
C636        C637   1.404       .  A
C636        S642   1.708       .  A
C637        C638   1.404       .  A
C637        H646   1.083       .  S
C638        C641   1.375       .  A
S639        C640   1.721       .  A
C640        C641   1.386       .  A
C641        H647   1.083       .  S
S642        C643   1.726       .  A
C643        C644   1.388       .  A
C644        H648   1.083       .  S
C649        C654   1.386       .  A
C649        C650   1.409       .  A
C649        S655   1.717       .  A
C650        C651   1.410       .  A
C650        H661   1.083       .  S
C651        C660   1.380       .  A
C651        C652   1.386       .  A
C652        C653   1.402       .  A
C652        S658   1.708       .  A
C653        C654   1.403       .  A
C653        H662   1.083       .  S
C654        C657   1.372       .  A
S655        C656   1.728       .  A
C656        C657   1.388       .  A
C657        H663   1.083       .  S
S658        C659   1.724       .  A
C659        C660   1.393       .  A
C660        H664   1.082       .  S
C665        C670   1.387       .  A
C665        C666   1.400       .  A
C665        S671   1.703       .  A
C666        C667   1.401       .  A
C666        H677   1.083       .  S
C667        C676   1.371       .  A
C667        C668   1.386       .  A
C668        C669   1.406       .  A
C668        S674   1.711       .  A
C669        C670   1.406       .  A
C669        H678   1.083       .  S
C670        C673   1.377       .  A
S671        C672   1.722       .  A
C672        C673   1.388       .  A
C673        H679   1.083       .  S
S674        C675   1.727       .  A
C675        C676   1.387       .  A
C676        H680   1.082       .  S
C681        C686   1.386       .  A
C681        C682   1.406       .  A
C681        S687   1.713       .  A
C682        C683   1.407       .  A
C682        H693   1.083       .  S
C683        C692   1.377       .  A
C683        C684   1.386       .  A
C684        C685   1.404       .  A
C684        S690   1.710       .  A
C685        C686   1.405       .  A
C685        H694   1.083       .  S
C686        C689   1.374       .  A
S687        C688   1.726       .  A
C688        C689   1.390       .  A
C689        H695   1.083       .  S
S690        C691   1.726       .  A
C691        C692   1.391       .  A
C692        H696   1.082       .  S
C697        C702   1.388       .  A
C697        C698   1.401       .  A
C697        S703   1.707       .  A
C698        C699   1.402       .  A
C698        H709   1.083       .  S
C699        C708   1.370       .  A
C699        C700   1.387   1_655  A
C700        C701   1.401       .  A
C700        S706   1.706       .  A
C701        C702   1.402   1_455  A
C701        H710   1.083       .  S
C702        C705   1.370       .  A
S703        C704   1.721       .  A
C704        C705   1.383       .  A
C705        H711   1.083   1_655  S
S706        C707   1.723   1_455  A
C707        C708   1.387       .  A
C708        H712   1.082       .  S
C713        C718   1.387       .  A
C713        C714   1.405       .  A
C713        S719   1.710       .  A
C714        C715   1.405       .  A
C714        H725   1.083       .  S
C715        C724   1.376       .  A
C715        C716   1.386       .  A
C716        C717   1.402       .  A
C716        S722   1.705       .  A
C717        C718   1.402       .  A
C717        H726   1.083   1_655  S
C718        C721   1.371       .  A
S719        C720   1.722       .  A
C720        C721   1.385       .  A
C721        H727   1.083   1_655  S
S722        C723   1.725       .  A
C723        C724   1.390       .  A
C724        H728   1.082       .  S
C729        C734   1.386       .  A
C729        C730   1.402       .  A
C729        S735   1.705       .  A
C730        C731   1.402       .  A
C730        H741   1.083       .  S
C731        C740   1.373       .  A
C731        C732   1.386       .  A
C732        C733   1.407       .  A
C732        S738   1.712       .  A
C733        C734   1.407       .  A
C733        H742   1.083       .  S
C734        C737   1.378       .  A
S735        C736   1.724       .  A
C736        C737   1.391       .  A
C737        H743   1.082       .  S
S738        C739   1.728       .  A
C739        C740   1.387       .  A
C740        H744   1.082       .  S
C745        C750   1.386       .  A
C745        C746   1.403       .  A
C745        S751   1.708       .  A
C746        C747   1.403       .  A
C746        H757   1.083       .  S
C747        C756   1.372       .  A
C747        C748   1.387       .  A
C748        C749   1.404       .  A
C748        S754   1.710       .  A
C749        C750   1.405       .  A
C749        H758   1.083       .  S
C750        C753   1.375       .  A
S751        C752   1.725       .  A
C752        C753   1.389       .  A
C753        H759   1.083       .  S
S754        C755   1.725       .  A
C755        C756   1.388       .  A
C756        H760   1.083       .  S
C761        C766   1.386       .  A
C761        C762   1.406       .  A
C761        S767   1.711       .  A
C762        C763   1.406       .  A
C762        H773   1.083       .  S
C763        C772   1.376       .  A
C763        C764   1.386       .  A
C764        C765   1.404       .  A
C764        S770   1.708       .  A
C765        C766   1.404       .  A
C765        H774   1.083       .  S
C766        C769   1.374       .  A
S767        C768   1.726       .  A
C768        C769   1.390       .  A
C769        H775   1.082       .  S
S770        C771   1.726       .  A
C771        C772   1.390       .  A
C772        H776   1.082       .  S
C777        C782   1.387   1_565  A
C777        C778   1.403       .  A
C777        S783   1.708       .  A
C778        C779   1.403   1_565  A
C778        H789   1.083       .  S
C779        C788   1.375       .  A
C779        C780   1.386       .  A
C780        C781   1.405       .  A
C780        S786   1.709       .  A
C781        C782   1.405       .  A
C781        H790   1.083       .  S
C782        C785   1.376       .  A
S783        C784   1.724       .  A
C784        C785   1.389   1_565  A
C785        H791   1.083       .  S
S786        C787   1.727       .  A
C787        C788   1.389       .  A
C788        H792   1.082   1_545  S
C793        C798   1.386       .  A
C793        C794   1.405       .  A
C793        S799   1.713       .  A
C794        C795   1.406       .  A
C794        H805   1.083       .  S
C795        C804   1.374       .  A
C795        C796   1.386       .  A
C796        C797   1.402       .  A
C796        S802   1.708       .  A
C797        C798   1.403       .  A
C797        H806   1.083       .  S
C798        C801   1.370       .  A
S799        C800   1.725       .  A
C800        C801   1.388       .  A
C801        H807   1.083       .  S
S802        C803   1.725       .  A
C803        C804   1.390       .  A
C804        H808   1.082       .  S
C809        C814   1.386       .  A
C809        C810   1.406       .  A
C809        S815   1.713       .  A
C810        C811   1.407       .  A
C810        H821   1.083       .  S
C811        C820   1.377       .  A
C811        C812   1.386       .  A
C812        C813   1.401       .  A
C812        S818   1.705       .  A
C813        C814   1.402       .  A
C813        H822   1.083       .  S
C814        C817   1.370       .  A
S815        C816   1.727       .  A
C816        C817   1.388       .  A
C817        H823   1.083       .  S
S818        C819   1.725       .  A
C819        C820   1.390       .  A
C820        H824   1.082       .  S
C825        C830   1.386       .  A
C825        C826   1.403       .  A
C825        S831   1.708       .  A
C826        C827   1.404       .  A
C826        H837   1.083       .  S
C827        C836   1.374       .  A
C827        C828   1.386       .  A
C828        C829   1.405       .  A
C828        S834   1.709       .  A
C829        C830   1.405       .  A
C829        H838   1.083       .  S
C830        C833   1.375       .  A
S831        C832   1.725       .  A
C832        C833   1.390       .  A
C833        H839   1.082       .  S
S834        C835   1.726       .  A
C835        C836   1.389       .  A
C836        H840   1.082       .  S
C841        C846   1.386       .  A
C841        C842   1.406       .  A
C841        S847   1.713       .  A
C842        C843   1.407       .  A
C842        H853   1.083       .  S
C843        C852   1.377       .  A
C843        C844   1.386       .  A
C844        C845   1.402       .  A
C844        S850   1.706       .  A
C845        C846   1.402       .  A
C845        H854   1.083       .  S
C846        C849   1.371       .  A
S847        C848   1.726       .  A
C848        C849   1.388       .  A
C849        H855   1.083       .  S
S850        C851   1.725       .  A
C851        C852   1.391       .  A
C852        H856   1.082       .  S
C857        C862   1.387       .  A
C857        C858   1.404       .  A
C857        S863   1.706       .  A
C858        C859   1.404       .  A
C858        H869   1.083       .  S
C859        C868   1.376       .  A
C859        C860   1.386       .  A
C860        C861   1.405       .  A
C860        S866   1.707       .  A
C861        C862   1.404       .  A
C861        H870   1.083       .  S
C862        C865   1.376       .  A
S863        C864   1.725       .  A
C864        C865   1.388       .  A
C865        H871   1.083       .  S
S866        C867   1.726       .  A
C867        C868   1.389       .  A
C868        H872   1.082       .  S
C873        C878   1.386       .  A
C873        C874   1.404       .  A
C873        S879   1.709       .  A
C874        C875   1.404       .  A
C874        H885   1.083       .  S
C875        C884   1.374       .  A
C875        C876   1.386       .  A
C876        C877   1.404       .  A
C876        S882   1.710       .  A
C877        C878   1.405       .  A
C877        H886   1.083       .  S
C878        C881   1.375       .  A
S879        C880   1.726       .  A
C880        C881   1.389       .  A
C881        H887   1.082       .  S
S882        C883   1.726       .  A
C883        C884   1.390       .  A
C884        H888   1.082       .  S
C889        C894   1.386       .  A
C889        C890   1.405       .  A
C889        S895   1.709       .  A
C890        C891   1.405       .  A
C890        H901   1.083       .  S
C891        C900   1.376       .  A
C891        C892   1.387       .  A
C892        C893   1.403       .  A
C892        S898   1.706       .  A
C893        C894   1.403       .  A
C893        H902   1.083       .  S
C894        C897   1.375       .  A
S895        C896   1.727       .  A
C896        C897   1.389       .  A
C897        H903   1.082       .  S
S898        C899   1.724       .  A
C899        C900   1.388       .  A
C900        H904   1.083       .  S
C905        C910   1.388       .  A
C905        C906   1.400       .  A
C905        S911   1.705       .  A
C906        C907   1.401       .  A
C906        H917   1.083       .  S
C907        C916   1.369       .  A
C907        C908   1.386       .  A
C908        C909   1.404       .  A
C908        S914   1.710       .  A
C909        C910   1.405       .  A
C909        H918   1.083       .  S
C910        C913   1.373       .  A
S911        C912   1.719       .  A
C912        C913   1.387       .  A
C913        H919   1.083       .  S
S914        C915   1.726       .  A
C915        C916   1.387       .  A
C916        H920   1.082       .  S
C921        C926   1.386       .  A
C921        C922   1.404       .  A
C921        S927   1.712       .  A
C922        C923   1.405       .  A
C922        H933   1.083       .  S
C923        C932   1.373       .  A
C923        C924   1.386       .  A
C924        C925   1.400       .  A
C924        S930   1.705       .  A
C925        C926   1.401       .  A
C925        H934   1.083       .  S
C926        C929   1.368       .  A
S927        C928   1.724       .  A
C928        C929   1.386       .  A
C929        H935   1.083       .  S
S930        C931   1.723       .  A
C931        C932   1.389       .  A
C932        H936   1.082       .  S
C937        C942   1.386   1_545  A
C937        C938   1.407       .  A
C937        S943   1.716       .  A
C938        C939   1.408       .  A
C938        H949   1.083       .  S
C939        C948   1.378       .  A
C939        C940   1.386   1_545  A
C940        C941   1.403       .  A
C940        S946   1.709       .  A
C941        C942   1.404       .  A
C941        H950   1.083       .  S
C942        C945   1.373       .  A
S943        C944   1.726       .  A
C944        C945   1.389   1_545  A
C945        H951   1.083       .  S
S946        C947   1.726   1_565  A
C947        C948   1.392       .  A
C948        H952   1.082       .  S
C953        C958   1.386       .  A
C953        C954   1.403       .  A
C953        S959   1.707       .  A
C954        C955   1.404       .  A
C954        H965   1.083       .  S
C955        C964   1.373       .  A
C955        C956   1.386       .  A
C956        C957   1.402       .  A
C956        S962   1.706       .  A
C957        C958   1.402       .  A
C957        H966   1.083       .  S
C958        C961   1.372       .  A
S959        C960   1.726       .  A
C960        C961   1.387       .  A
C961        H967   1.082       .  S
S962        C963   1.724       .  A
C963        C964   1.389       .  A
C964        H968   1.082       .  S
C969        C974   1.386       .  A
C969        C970   1.402   1_565  A
C969        S975   1.706   1_565  A
C970        C971   1.402       .  A
C970        H981   1.083       .  S
C971        C980   1.371       .  A
C971        C972   1.386   1_545  A
C972        C973   1.406       .  A
C972        S978   1.713       .  A
C973        C974   1.407       .  A
C973        H982   1.083       .  S
C974        C977   1.377       .  A
S975        C976   1.725   1_545  A
C976        C977   1.391       .  A
C977        H983   1.082       .  S
S978        C979   1.725       .  A
C979        C980   1.387   1_565  A
C980        H984   1.083       .  S
C985        C990   1.386       .  A
C985        C986   1.404       .  A
C985        S991   1.711       .  A
C986        C987   1.405       .  A
C986        H997   1.083       .  S
C987        C996   1.374       .  A
C987        C988   1.386       .  A
C988        C989   1.403       .  A
C988        S994   1.709       .  A
C989        C990   1.404       .  A
C989        H998   1.083       .  S
C990        C993   1.372       .  A
S991        C992   1.725       .  A
C992        C993   1.390       .  A
C993        H999   1.082       .  S
S994        C995   1.725       .  A
C995        C996   1.390       .  A
C996       H1000   1.082       .  S
C1001      C1006   1.387       .  A
C1001      C1002   1.400       .  A
C1001      S1007   1.705       .  A
C1002      C1003   1.401       .  A
C1002      H1013   1.083       .  S
C1003      C1012   1.370       .  A
C1003      C1004   1.386       .  A
C1004      C1005   1.406       .  A
C1004      S1010   1.712       .  A
C1005      C1006   1.407       .  A
C1005      H1014   1.083       .  S
C1006      C1009   1.376       .  A
S1007      C1008   1.721       .  A
C1008      C1009   1.389       .  A
C1009      H1015   1.083       .  S
S1010      C1011   1.727       .  A
C1011      C1012   1.387       .  A
C1012      H1016   1.082       .  S
C1017      C1022   1.386       .  A
C1017      C1018   1.404       .  A
C1017      S1023   1.709       .  A
C1018      C1019   1.405       .  A
C1018      H1029   1.083       .  S
C1019      C1028   1.374       .  A
C1019      C1020   1.386       .  A
C1020      C1021   1.403       .  A
C1020      S1026   1.708       .  A
C1021      C1022   1.403       .  A
C1021      H1030   1.083       .  S
C1022      C1025   1.373       .  A
S1023      C1024   1.726       .  A
C1024      C1025   1.388       .  A
C1025      H1031   1.082       .  S
S1026      C1027   1.724       .  A
C1027      C1028   1.390       .  A
C1028      H1032   1.082       .  S
C1033      C1038   1.386       .  A
C1033      C1034   1.405       .  A
C1033      S1039   1.710       .  A
C1034      C1035   1.405       .  A
C1034      H1045   1.083       .  S
C1035      C1044   1.374       .  A
C1035      C1036   1.387       .  A
C1036      C1037   1.401       .  A
C1036      S1042   1.706       .  A
C1037      C1038   1.402       .  A
C1037      H1046   1.083       .  S
C1038      C1041   1.371       .  A
S1039      C1040   1.726       .  A
C1040      C1041   1.388       .  A
C1041      H1047   1.082       .  S
S1042      C1043   1.722       .  A
C1043      C1044   1.388       .  A
C1044      H1048   1.083       .  S
C1049      C1054   1.387       .  A
C1049      C1050   1.403       .  A
C1049      S1055   1.705       .  A
C1050      C1051   1.403       .  A
C1050      H1061   1.083       .  S
C1051      C1060   1.375       .  A
C1051      C1052   1.386       .  A
C1052      C1053   1.406       .  A
C1052      S1058   1.708       .  A
C1053      C1054   1.405       .  A
C1053      H1062   1.083       .  S
C1054      C1057   1.377       .  A
S1055      C1056   1.725       .  A
C1056      C1057   1.389       .  A
C1057      H1063   1.083       .  S
S1058      C1059   1.727       .  A
C1059      C1060   1.388       .  A
C1060      H1064   1.082       .  S
C1065      C1070   1.387       .  A
C1065      C1066   1.403       .  A
C1065      S1071   1.707       .  A
C1066      C1067   1.403       .  A
C1066      H1077   1.083       .  S
C1067      C1076   1.374       .  A
C1067      C1068   1.386       .  A
C1068      C1069   1.404       .  A
C1068      S1074   1.708       .  A
C1069      C1070   1.404       .  A
C1069      H1078   1.083       .  S
C1070      C1073   1.374       .  A
S1071      C1072   1.722       .  A
C1072      C1073   1.386       .  A
C1073      H1079   1.083       .  S
S1074      C1075   1.725       .  A
C1075      C1076   1.389       .  A
C1076      H1080   1.082       .  S
C1081      C1086   1.387       .  A
C1081      C1082   1.402       .  A
C1081      S1087   1.707       .  A
C1082      C1083   1.402       .  A
C1082      H1093   1.083       .  S
C1083      C1092   1.372       .  A
C1083      C1084   1.386       .  A
C1084      C1085   1.407       .  A
C1084      S1090   1.714       .  A
C1085      C1086   1.408       .  A
C1085      H1094   1.083       .  S
C1086      C1089   1.378       .  A
S1087      C1088   1.721       .  A
C1088      C1089   1.389       .  A
C1089      H1095   1.083       .  S
S1090      C1091   1.727       .  A
C1091      C1092   1.389       .  A
C1092      H1096   1.082       .  S
C1097      C1102   1.386       .  A
C1097      C1098   1.403       .  A
C1097      S1103   1.707       .  A
C1098      C1099   1.404       .  A
C1098      H1109   1.083       .  S
C1099      C1108   1.373       .  A
C1099      C1100   1.386       .  A
C1100      C1101   1.403       .  A
C1100      S1106   1.706       .  A
C1101      C1102   1.403       .  A
C1101      H1110   1.083       .  S
C1102      C1105   1.373       .  A
S1103      C1104   1.725       .  A
C1104      C1105   1.388       .  A
C1105      H1111   1.082       .  S
S1106      C1107   1.724       .  A
C1107      C1108   1.389       .  A
C1108      H1112   1.082       .  S
C1113      C1118   1.387       .  A
C1113      C1114   1.405       .  A
C1113      S1119   1.712       .  A
C1114      C1115   1.406       .  A
C1114      H1125   1.083       .  S
C1115      C1124   1.374       .  A
C1115      C1116   1.386       .  A
C1116      C1117   1.403   1_565  A
C1116      S1122   1.709   1_565  A
C1117      C1118   1.404   1_545  A
C1117      H1126   1.083       .  S
C1118      C1121   1.372   1_565  A
S1119      C1120   1.723       .  A
C1120      C1121   1.387   1_565  A
C1121      H1127   1.083       .  S
S1122      C1123   1.725   1_545  A
C1123      C1124   1.390       .  A
C1124      H1128   1.082       .  S
C1129      C1134   1.386       .  A
C1129      C1130   1.406       .  A
C1129      S1135   1.715       .  A
C1130      C1131   1.407       .  A
C1130      H1141   1.083       .  S
C1131      C1140   1.375       .  A
C1131      C1132   1.386       .  A
C1132      C1133   1.399       .  A
C1132      S1138   1.705       .  A
C1133      C1134   1.400       .  A
C1133      H1142   1.083       .  S
C1134      C1137   1.367       .  A
S1135      C1136   1.725       .  A
C1136      C1137   1.385       .  A
C1137      H1143   1.083       .  S
S1138      C1139   1.722       .  A
C1139      C1140   1.391       .  A
C1140      H1144   1.082       .  S
