geometry optimzed in LAMMPS
_audit_creation_date              2020-11-30 
_audit_creation_method            'lammps2cif' 
_symmetry_space_group_name_H-M    'P1' 
_symmetry_Int_Tables_number       1 
_symmetry_cell_setting            triclinic 
loop_ 
_symmetry_equiv_pos_as_xyz 
  x,y,z 
_cell_length_a                    59.859486183801465 
_cell_length_b                    57.77694158072398 
_cell_length_c                    30.263813930688254 
_cell_angle_alpha                 81.072032716301 
_cell_angle_beta                  95.10876496144185 
_cell_angle_gamma                 126.23530088240477 
loop_ 
_atom_site_label 
_atom_site_type_symbol 
_atom_site_fract_x 
_atom_site_fract_y 
_atom_site_fract_z 
_atom_site_charge 
O1          O  0.06850982  0.05186457  0.05163494    -0.75550
O2          O  0.05039113  0.07654260  0.04190397    -0.54460
C3          C  0.07163160  0.07564600  0.04426417     0.78180
O4          O  0.99111199  0.01591236  0.84778837    -0.60150
O5          O  0.97995237  0.47017930  0.85926882    -0.53180
C6          C  0.98403681  0.49244319  0.83420865     0.70190
O7          O  0.02510707  0.08680733  0.93697364    -0.74710
O8          O  0.51580070  0.08421955  0.00990369    -0.55280
C9          C  0.52641842  0.09812888  0.97156364     0.76190
O10         O  0.06267057  0.99978577  0.95664616    -0.59860
O11         O  0.02491285  0.46166263  0.92603462    -0.52980
C12         C  0.05129952  0.47732221  0.93687278     0.72780
Zr13       Zr  0.04691955  0.02082783  0.99506477     2.54710
O14         O  0.08661013  0.06220183  0.95208266    -0.80420
O15         O  0.07266343  0.00577524  0.04201424    -0.93840
Zr16       Zr  0.00136161  0.03828520  0.91518863     2.64680
O17         O  0.03817435  0.07324669  0.86149144    -0.98790
O18         O  0.47149326  0.05064908  0.87688570    -0.80860
O19         O  0.02810852  0.04750325  0.98028072    -0.84210
O20         O  0.02056734  0.01159776  0.92815571    -2.18920
O21         O  0.48985359  0.42725557  0.04060989    -0.67600
O22         O  0.97046984  0.41604621  0.97229346    -0.52170
C23         C  0.98273783  0.41313857  0.00675512     0.71170
O24         O  0.42179346  0.50309745  0.01981719    -0.60510
O25         O  0.45846985  0.03862902  0.05608379    -0.52490
C26         C  0.43225745  0.02355436  0.04415807     0.72970
O27         O  0.41846813  0.44762029  0.92738843    -0.71910
O28         O  0.43273131  0.41979622  0.93505769    -0.50580
C29         C  0.41292120  0.42255423  0.93666363     0.74350
O30         O  0.48839968  0.48144175  0.13286454    -0.67240
O31         O  0.49996704  0.02736237  0.12055156    -0.54430
C32         C  0.49493470  0.00483539  0.14599256     0.72730
Zr33       Zr  0.48141603  0.46004737  0.06570218     2.77540
O34         O  0.43720314  0.41755000  0.09589673    -0.97980
O35         O  0.00033215  0.44416864  0.12734043    -0.78810
Zr36       Zr  0.43514682  0.47737350  0.98673038     2.70070
O37         O  0.39895490  0.43664589  0.03597058    -0.80050
O38         O  0.39874962  0.47942587  0.94817701    -0.99140
Zr39       Zr  0.49912706  0.03675986  0.04094275     2.21500
Zr40       Zr  0.98276740  0.46155871  0.93908822     2.11130
O41         O  0.45430385  0.45073718  0.00185025    -2.47820
O42         O  0.46185919  0.48656165  0.05294538    -0.79850
O43         O  0.01014667  0.47180421  0.00500070    -0.72040
O44         O  0.47193516  0.02721608  0.97468630    -2.33000
O45         O  0.01827785  0.00945902  0.05654284    -2.29210
O46         O  0.46364599  0.48880639  0.92500517    -0.73800
H47         H  0.03173626  0.01571162  0.90292042     0.78200
H48         H  0.46527002  0.03907696  0.96910551     0.79280
H49         H  0.44002633  0.43063078  0.00883333     0.81510
H50         H  0.02851659  0.01317669  0.08417079     0.79120
H51         H  0.47799969  0.06922861  0.88685362     0.42150
H52         H  0.40199375  0.48125169  0.91590955     0.41120
H53         H  0.40747979  0.43901684  0.06601258     0.40800
H54         H  0.43753346  0.40105069  0.09200738     0.38730
H55         H  0.02058273  0.45704914  0.12196985     0.41870
H56         H  0.07654188  0.01402937  0.07037128     0.36650
H57         H  0.07853439  0.06915954  0.92859677     0.42770
H58         H  0.04533801  0.06297918  0.85254667     0.39180
H59         H  0.43884617  0.41825474  0.12858218     0.44100
H60         H  0.05882936  0.98474048  0.05054303     0.42820
H61         H  0.02852470  0.07540038  0.83461711     0.42960
H62         H  0.38150094  0.45976877  0.95531153     0.43320
O63         O  0.46528182  0.42201702  0.43998706    -0.75550
O64         O  0.01149680  0.45259697  0.43540674    -0.54460
C65         C  0.98883240  0.42653218  0.44061669     0.78180
O66         O  0.41760479  0.00231121  0.44263626    -0.60150
O67         O  0.41736696  0.99724242  0.51906967    -0.53180
C68         C  0.40795173  0.99991931  0.48083970     0.70190
O69         O  0.47289055  0.00190209  0.34702820    -0.74710
O70         O  0.01118380  0.00159126  0.35688522    -0.55280
C71         C  0.99275817  0.00218134  0.33305304     0.76190
O72         O  0.41806101  0.41644774  0.54968219    -0.59860
O73         O  0.41436658  0.44976860  0.57329085    -0.52980
C74         C  0.40634651  0.42348708  0.57191824     0.72780
Zr75       Zr  0.45183266  0.43878846  0.49305478     2.54710
O76         O  0.40856123  0.40751318  0.45433538    -0.80420
O77         O  0.44830743  0.39717026  0.53504490    -0.93840
Zr78       Zr  0.45467771  0.00146151  0.41631391     2.64680
O79         O  0.41357237  0.46701025  0.37602911    -0.98790
O80         O  0.45910665  0.04182311  0.36784646    -0.80860
O81         O  0.46897850  0.47045790  0.42583981    -0.84210
O82         O  0.43679694  0.46886775  0.48278730    -2.18920
O83         O  0.49856919  0.49323332  0.63110084    -0.67600
O84         O  0.46343186  0.49861842  0.62099873    -0.52170
C85         C  0.48024861  0.49530131  0.64526459     0.71170
O86         O  0.04988537  0.07747705  0.41658304    -0.60510
O87         O  0.06215461  0.04759471  0.41365369    -0.52490
C88         C  0.06760437  0.07303675  0.40993830     0.72970
O89         O  0.50847143  0.07887396  0.52821588    -0.71910
O90         O  0.46232613  0.04650490  0.53275788    -0.50580
C91         C  0.48450236  0.07306828  0.52775794     0.74350
O92         O  0.05205282  0.99121167  0.53407836    -0.67240
O93         O  0.05830612  0.00477952  0.45903153    -0.54430
C94         C  0.06394504  0.99634983  0.49675601     0.72730
Zr95       Zr  0.01768129  0.99578785  0.56130383     2.77540
O96         O  0.05944522  0.02956753  0.60095764    -0.97980
O97         O  0.01326749  0.45612065  0.61170027    -0.78810
Zr98       Zr  0.02167988  0.05892205  0.48191261     2.70070
O99         O  0.06184135  0.08760310  0.52834262    -0.80050
O100        O  0.03304164  0.10448445  0.44102112    -0.99140
Zr101      Zr  0.01804514  0.99972075  0.43522731     2.21500
Zr102      Zr  0.45561505  0.99828923  0.54220232     2.11130
O103        O  0.50456206  0.02773388  0.55005361    -2.47820
O104        O  0.03672133  0.02882079  0.49496236    -0.79850
O105        O  0.46895699  0.46644241  0.55390911    -0.72040
O106        O  0.00318085  0.03036689  0.42185654    -2.33000
O107        O  0.00008705  0.46700004  0.50277467    -2.29210
O108        O  0.47293500  0.03071899  0.47490628    -0.73800
H109        H  0.41679913  0.45706371  0.48260145     0.78200
H110        H  0.00915827  0.04149752  0.39267454     0.79280
H111        H  0.51045014  0.03889780  0.57474898     0.81510
H112        H  0.00567472  0.45425710  0.50953706     0.79120
H113        H  0.47866104  0.05458314  0.35778376     0.42150
H114        H  0.51525816  0.09988588  0.42816821     0.41120
H115        H  0.06483910  0.07367162  0.54563828     0.40800
H116        H  0.05478175  0.04065840  0.61476076     0.38730
H117        H  0.49464506  0.43884911  0.60543109     0.41870
H118        H  0.46762316  0.40398874  0.54181391     0.36650
H119        H  0.41372196  0.41261890  0.42228157     0.42770
H120        H  0.41771064  0.45417894  0.36690154     0.39180
H121        H  0.06049338  0.01727797  0.62652300     0.44100
H122        H  0.44176016  0.38322853  0.51332353     0.42820
H123        H  0.41404734  0.47852670  0.34776415     0.42960
H124        H  0.03784906  0.11735022  0.46376687     0.43320
O125        O  0.07741510  0.27914421  0.93694410    -0.75550
O126        O  0.05024640  0.23223966  0.92834974    -0.54460
C127        C  0.07427068  0.25542275  0.93631565     0.78180
O128        O  0.99698044  0.22542598  0.12663027    -0.60150
O129        O  0.98295744  0.25478203  0.11848357    -0.53180
C130        C  0.99228709  0.24185003  0.14234877     0.70190
O131        O  0.51356520  0.18764406  0.02291596    -0.74710
O132        O  0.49391149  0.17824601  0.95556784    -0.55280
C133        C  0.50948275  0.17742914  0.98568979     0.76190
O134        O  0.05927496  0.32233572  0.02151206    -0.59860
O135        O  0.03008621  0.30652064  0.07854759    -0.52980
C136        C  0.05460904  0.32244995  0.06176775     0.72780
Zr137      Zr  0.05364584  0.28279664  0.99247689     2.54710
O138        O  0.07327013  0.26361581  0.04677264    -0.80420
O139        O  0.10175187  0.32524147  0.98831935    -0.93840
Zr140      Zr  0.99226578  0.20735697  0.05392269     2.64680
O141        O  0.01087167  0.18861987  0.11153136    -0.98790
O142        O  0.45011015  0.16000873  0.07734520    -0.80860
O143        O  0.02570980  0.23254903  0.99500059    -0.84210
O144        O  0.02055078  0.25811887  0.05148872    -2.18920
O145        O  0.50293181  0.32630767  0.94567237    -0.67600
O146        O  0.00311252  0.31811026  0.02154173    -0.52170
C147        C  0.50457331  0.33311922  0.98516181     0.71170
O148        O  0.44668955  0.20550977  0.89790634    -0.60510
O149        O  0.46383548  0.18169373  0.89332622    -0.52490
C150        C  0.44271912  0.18194627  0.89290391     0.72970
O151        O  0.41316590  0.21932885  0.01405493    -0.71910
O152        O  0.44227860  0.26382935  0.03511818    -0.50580
C153        C  0.41784111  0.24274472  0.02241111     0.74350
O154        O  0.49057294  0.26850385  0.84222467    -0.67240
O155        O  0.50079467  0.23605671  0.84413836    -0.54430
C156        C  0.49224623  0.25086546  0.82382613     0.72730
Zr157      Zr  0.50188520  0.28922137  0.91248237     2.77540
O158        O  0.47585311  0.30272879  0.86304096    -0.97980
O159        O  0.04388703  0.33092422  0.87476206    -0.78810
Zr160      Zr  0.43958747  0.21219148  0.97054024     2.70070
O161        O  0.39996557  0.20665264  0.93026735    -0.80050
O162        O  0.40556360  0.16088777  0.99433375    -0.99140
Zr163      Zr  0.50359312  0.22321561  0.92423406     2.21500
Zr164      Zr  0.98855631  0.27079239  0.03942926     2.11130
O165        O  0.46658620  0.26316663  0.96804903    -2.47820
O166        O  0.47412369  0.23873099  0.91460661    -0.79850
O167        O  0.02354860  0.29694000  0.98238229    -0.72040
O168        O  0.46874575  0.19684478  0.98391874    -2.33000
O169        O  0.03216561  0.27482001  0.92070193    -2.29210
O170        O  0.46048843  0.21980988  0.04260746    -0.73800
H171        H  0.03115495  0.26415225  0.07856344     0.78200
H172        H  0.45713552  0.17615216  0.98362199     0.79280
H173        H  0.45544254  0.27028992  0.96133027     0.81510
H174        H  0.04478566  0.28410280  0.89557853     0.79120
H175        H  0.45411027  0.14629184  0.07212864     0.42150
H176        H  0.40964809  0.15814060  0.02633211     0.41120
H177        H  0.40680571  0.22653880  0.91690219     0.40800
H178        H  0.46168468  0.29978460  0.88244890     0.38730
H179        H  0.05541616  0.34258784  0.89897089     0.41870
H180        H  0.10454334  0.33428782  0.95681524     0.36650
H181        H  0.05751515  0.24518237  0.06220249     0.42770
H182        H  0.02742660  0.20589911  0.12318364     0.39180
H183        H  0.48884446  0.32397626  0.85546677     0.44100
H184        H  0.11292693  0.31754859  0.99163018     0.42820
H185        H  0.99726618  0.17885024  0.13635835     0.42960
H186        H  0.38779091  0.15853170  0.99459374     0.43320
O187        O  0.05801693  0.25401908  0.55274026    -0.75550
O188        O  0.06573332  0.25820515  0.47822491    -0.54460
C189        C  0.07222936  0.25723391  0.51957931     0.78180
O190        O  0.42150086  0.17419953  0.53989503    -0.60150
O191        O  0.40671837  0.20108165  0.51838530    -0.53180
C192        C  0.40264678  0.17628967  0.52358574     0.70190
O193        O  0.47614864  0.17525948  0.44846072    -0.74710
O194        O  0.02194922  0.20773256  0.45532942    -0.55280
C195        C  0.00001140  0.18110987  0.45603841     0.76190
O196        O  0.49156074  0.24757845  0.62723019    -0.59860
O197        O  0.45222543  0.24511610  0.60908392    -0.52980
C198        C  0.47011807  0.24575412  0.63718839     0.72780
Zr199      Zr  0.01542488  0.24982913  0.56465163     2.54710
O200        O  0.00797164  0.20840884  0.61434835    -0.80420
O201        O  0.05045931  0.28414549  0.61324592    -0.93840
Zr202      Zr  0.45816949  0.19289121  0.48957349     2.64680
O203        O  0.45257998  0.15275387  0.54053281    -0.98790
O204        O  0.42182335  0.15813091  0.44306849    -0.80860
O205        O  0.00577009  0.22231604  0.50635085    -0.84210
O206        O  0.46757311  0.21951824  0.54997124    -2.18920
O207        O  0.50215890  0.32666468  0.52748643    -0.67600
O208        O  0.45620734  0.29577658  0.52238187    -0.52170
C209        C  0.47864780  0.32197920  0.52059934     0.71170
O210        O  0.48822848  0.25770930  0.34037082    -0.60510
O211        O  0.02482549  0.25536730  0.35944550    -0.52490
C212        C  0.00791169  0.25631743  0.33070784     0.72970
O213        O  0.42157568  0.25173188  0.41878567    -0.71910
O214        O  0.41365734  0.24669315  0.49367491    -0.50580
C215        C  0.40726790  0.24809651  0.45250520     0.74350
O216        O  0.05471563  0.32848250  0.42341603    -0.67240
O217        O  0.07335092  0.30493075  0.43591518    -0.54430
C218        C  0.07536770  0.32843103  0.43605149     0.72730
Zr219      Zr  0.02169323  0.31314870  0.47997995     2.77540
O220        O  0.02580693  0.35428808  0.43489294    -0.97980
O221        O  0.05945577  0.34622031  0.52653853    -0.78810
Zr222      Zr  0.46474319  0.25651032  0.40348162     2.70070
O223        O  0.47472776  0.30064291  0.35928615    -0.80050
O224        O  0.43396176  0.22960782  0.34402304    -0.99140
Zr225      Zr  0.02810567  0.25579815  0.44095047     2.21500
Zr226      Zr  0.45151540  0.24918998  0.52731674     2.11130
O227        O  0.47432634  0.28347310  0.46199073    -2.47820
O228        O  0.01266956  0.28626392  0.42007303    -0.79850
O229        O  0.49962597  0.27942536  0.54445133    -0.72040
O230        O  0.47969352  0.22602800  0.42419105    -2.33000
O231        O  0.03690993  0.28322981  0.50104488    -2.29210
O232        O  0.44251728  0.22228660  0.46706258    -0.73800
H233        H  0.45912769  0.20727771  0.57778845     0.78200
H234        H  0.47615375  0.21518313  0.39998124     0.79280
H235        H  0.46768626  0.29503511  0.45152291     0.81510
H236        H  0.05603095  0.29504270  0.50966683     0.79120
H237        H  0.42603438  0.16877575  0.41248708     0.42150
H238        H  0.42700103  0.20925001  0.35381434     0.41120
H239        H  0.49517644  0.31373340  0.35679793     0.40800
H240        H  0.50662511  0.34723006  0.42626592     0.38730
H241        H  0.05577103  0.33472561  0.55634470     0.41870
H242        H  0.06682878  0.29816598  0.59375914     0.36650
H243        H  0.01365110  0.19966630  0.59655994     0.42770
H244        H  0.47133051  0.16043450  0.55259459     0.39180
H245        H  0.03139759  0.36826748  0.45611142     0.44100
H246        H  0.05587504  0.27303952  0.63347801     0.42820
H247        H  0.44865339  0.13838193  0.52125933     0.42960
H248        H  0.41774360  0.23005813  0.34492395     0.43320
O249        O  0.17207432  0.43881167  0.07307702    -0.75630
O250        O  0.16173582  0.42405275  0.00367166    -0.54460
C251        C  0.15600519  0.42135357  0.04524769     0.78180
O252        O  0.24451248  0.07386516  0.03002700    -0.60150
O253        O  0.28632416  0.08539818  0.05739673    -0.53180
C254        C  0.26669741  0.08900576  0.05258579     0.70190
O255        O  0.17063448  0.00544091  0.96244759    -0.74710
O256        O  0.15781639  0.46429186  0.93604165    -0.55280
C257        C  0.15246732  0.48191963  0.94521875     0.76190
O258        O  0.24488075  0.50351282  0.13638014    -0.59860
O259        O  0.28814883  0.04432980  0.11755773    -0.52980
C260        C  0.26805368  0.02665889  0.14551681     0.72780
Zr261      Zr  0.22081665  0.47568451  0.07494424     2.54710
O262        O  0.19367870  0.46751530  0.13847736    -0.80420
O263        O  0.22482263  0.43810882  0.11371443    -0.93840
Zr264      Zr  0.21947017  0.03349062  0.98766649     2.64680
O265        O  0.19393454  0.04417721  0.02856179    -0.98790
O266        O  0.22629112  0.06887553  0.92462997    -0.80860
O267        O  0.19776715  0.48391500  0.01314211    -0.84210
O268        O  0.24134383  0.02484255  0.05103153    -2.18920
O269        O  0.31647254  0.00257433  0.02962912    -0.67600
O270        O  0.33072126  0.04488554  0.05315585    -0.52170
C271        C  0.33504024  0.02589510  0.04670989     0.71170
O272        O  0.24299695  0.00877785  0.85122722    -0.60510
O273        O  0.20049571  0.46694206  0.86995136    -0.52490
C274        C  0.21967166  0.48607531  0.84110612     0.72970
O275        O  0.31517857  0.07792191  0.91661268    -0.71910
O276        O  0.32818994  0.08664891  0.98914645    -0.50580
C277        C  0.33264610  0.09205271  0.94660582     0.74350
O278        O  0.24682650  0.45159988  0.93310129    -0.67240
O279        O  0.20100131  0.42235593  0.93989756    -0.54430
C280        C  0.22424692  0.42614718  0.93521848     0.72730
Zr281      Zr  0.26964016  0.47688303  0.99779331     2.77540
O282        O  0.30208403  0.47421273  0.95902513    -0.97980
O283        O  0.25809494  0.43401416  0.04828276    -0.78810
Zr284      Zr  0.26888334  0.03503039  0.91299484     2.70070
O285        O  0.29916884  0.03513920  0.86423624    -0.80050
O286        O  0.26709027  0.07119544  0.86296334    -0.99140
Zr287      Zr  0.19914793  0.46278798  0.95240954     2.21500
Zr288      Zr  0.28939843  0.04722188  0.03607520     2.11130
O289        O  0.29134218  0.02660322  0.97531298    -2.47820
O290        O  0.24699162  0.48550592  0.93602873    -0.79850
O291        O  0.26777701  0.49677152  0.05932658    -0.72040
O292        O  0.22168354  0.01342683  0.92783044    -2.33000
O293        O  0.22219862  0.45399992  0.01603345    -2.29210
O294        O  0.26708316  0.05631813  0.97202845    -0.73800
H295        H  0.23941366  0.03245570  0.07543526     0.78200
H296        H  0.21269239  0.01642014  0.90177349     0.79280
H297        H  0.31024358  0.03517211  0.96739942     0.81510
H298        H  0.21282271  0.43348239  0.02483445     0.79120
H299        H  0.20760434  0.06041675  0.91161564     0.42150
H300        H  0.27592298  0.08794251  0.87991929     0.41120
H301        H  0.30061532  0.01954539  0.87907615     0.40800
H302        H  0.31729411  0.99448117  0.94817631     0.38730
H303        H  0.27617568  0.43894074  0.06019104     0.41870
H304        H  0.20571541  0.42013522  0.11429467     0.36650
H305        H  0.18715168  0.47981526  0.12945228     0.42770
H306        H  0.18375599  0.02751805  0.05216672     0.39180
H307        H  0.31057798  0.46756663  0.98219369     0.44100
H308        H  0.22863691  0.44216895  0.14516370     0.42820
H309        H  0.17957832  0.04303710  0.00803694     0.42960
H310        H  0.28053001  0.07764553  0.83893405     0.43320
O311        O  0.24924156  0.07204250  0.53611164    -0.75550
O312        O  0.20931416  0.03379725  0.57075722    -0.54460
C313        C  0.22890472  0.06152894  0.56216371     0.78180
O314        O  0.23104250  0.01032723  0.34621607    -0.60150
O315        O  0.27187024  0.01601577  0.36098769    -0.53180
C316        C  0.25427415  0.01607916  0.33386125     0.70190
O317        O  0.16557083  0.49546008  0.44246896    -0.74710
O318        O  0.16348809  0.48799886  0.51848469    -0.55280
C319        C  0.15429444  0.49091793  0.48033504     0.76190
O320        O  0.30098847  0.07643031  0.43591657    -0.59860
O321        O  0.31661252  0.04955360  0.44417460    -0.52980
C322        C  0.32066892  0.07408366  0.44377632     0.72780
Zr323      Zr  0.26596961  0.05496023  0.49152810     2.54710
O324        O  0.26637190  0.09467469  0.44943350    -0.80420
O325        O  0.30553229  0.08872627  0.53495810    -0.93840
Zr326      Zr  0.20593209  0.49960095  0.41661322     2.64680
O327        O  0.20402816  0.03674900  0.37007223    -0.98790
O328        O  0.16884613  0.46243047  0.37387762    -0.80860
O329        O  0.21777826  0.02394142  0.48117330    -0.84210
O330        O  0.25394310  0.03164007  0.42662595    -2.18920
O331        O  0.30592564  0.49737000  0.54202656    -0.67600
O332        O  0.30695302  0.00032709  0.46570885    -0.52170
C333        C  0.31659571  0.49998879  0.50474607     0.71170
O334        O  0.17523417  0.41813341  0.55543908    -0.60510
O335        O  0.15529984  0.44020836  0.55269505    -0.52490
C336        C  0.15358938  0.41726034  0.54915184     0.72970
O337        O  0.22305968  0.42093245  0.44506283    -0.71910
O338        O  0.26381157  0.45982507  0.41352762    -0.50580
C339        C  0.24441500  0.43223343  0.42083804     0.74350
O340        O  0.24408480  0.48632085  0.63830067    -0.67240
O341        O  0.20237321  0.47938327  0.62657881    -0.54430
C342        C  0.22184299  0.48187560  0.65194749     0.72730
Zr343      Zr  0.26457721  0.49061014  0.56768173     2.77540
O344        O  0.25871436  0.44785749  0.60974730    -0.97980
O345        O  0.30215854  0.02118068  0.61694910    -0.78810
Zr346      Zr  0.20488775  0.43575173  0.49210995     2.70070
O347        O  0.20478748  0.39508582  0.52871317    -0.80050
O348        O  0.16437283  0.40195785  0.45044792    -0.99140
Zr349      Zr  0.20075364  0.48892516  0.54652847     2.21500
Zr350      Zr  0.27065803  0.50245147  0.43969649     2.11130
O351        O  0.25282326  0.46645720  0.50339997    -2.47820
O352        O  0.21638964  0.45878766  0.55777364    -0.79850
O353        O  0.28285056  0.02643236  0.50443949    -0.72040
O354        O  0.18859390  0.46486248  0.48059735    -2.33000
O355        O  0.24921474  0.02066712  0.55682325    -2.29210
O356        O  0.22237993  0.47044775  0.42729913    -0.73800
H357        H  0.26123381  0.04539987  0.39987574     0.78200
H358        H  0.16896389  0.45264341  0.47556998     0.79280
H359        H  0.26027063  0.45536152  0.50572913     0.81510
H360        H  0.25350930  0.03044500  0.58276808     0.79120
H361        H  0.15306925  0.45009137  0.39502530     0.42150
H362        H  0.16869587  0.41102895  0.41893361     0.41120
H363        H  0.20980432  0.39894966  0.56013338     0.40800
H364        H  0.25943091  0.43770250  0.58702442     0.38730
H365        H  0.30134847  0.03778802  0.61722348     0.41870
H366        H  0.29898156  0.08239753  0.56636894     0.36650
H367        H  0.24972402  0.08513008  0.43026711     0.42770
H368        H  0.22346533  0.05224685  0.36096745     0.39180
H369        H  0.27616612  0.45548826  0.62673196     0.44100
H370        H  0.30783718  0.10730490  0.52686290     0.42820
H371        H  0.19472263  0.02817066  0.34232508     0.42960
H372        H  0.16493455  0.38508734  0.45157252     0.43320
O373        O  0.25020719  0.18837200  0.08900292    -0.75550
O374        O  0.25436000  0.18252029  0.01757269    -0.54460
C375        C  0.25460361  0.17683840  0.06047458     0.78180
O376        O  0.16367293  0.23533457  0.01531969    -0.60150
O377        O  0.19564159  0.28342635  0.01828646    -0.53180
C378        C  0.17032249  0.26088223  0.01271820     0.70190
O379        O  0.17869488  0.18580390  0.94444833    -0.74710
O380        O  0.20176827  0.16790522  0.97079274    -0.55280
C381        C  0.17846073  0.16442657  0.96142279     0.76190
O382        O  0.23494539  0.24696412  0.14512080    -0.59860
O383        O  0.23655803  0.28714641  0.11706631    -0.52980
C384        C  0.23383826  0.26815946  0.14964222     0.72780
Zr385      Zr  0.24171594  0.22588778  0.08746220     2.54710
O386        O  0.20248042  0.18348165  0.12993689    -0.80420
O387        O  0.27516888  0.23498400  0.14689285    -0.93840
Zr388      Zr  0.18918534  0.21932997  0.99342021     2.64680
O389        O  0.15435859  0.17711082  0.04276518    -0.98790
O390        O  0.15333941  0.21442345  0.94212176    -0.80860
O391        O  0.21627952  0.20297141  0.02415511    -0.84210
O392        O  0.21315972  0.24095847  0.05826305    -2.18920
O393        O  0.30953452  0.31938059  0.05959576    -0.67600
O394        O  0.28883058  0.34010524  0.03744715    -0.52170
C395        C  0.31143251  0.34190817  0.04290296     0.71170
O396        O  0.25410169  0.26073478  0.85815172    -0.60510
O397        O  0.25085694  0.21941528  0.88537633    -0.52490
C398        C  0.25329707  0.23839047  0.85302827     0.72970
O399        O  0.24276485  0.32301713  0.91903484    -0.71910
O400        O  0.24133152  0.32924207  0.99148795    -0.50580
C401        C  0.24098571  0.33583625  0.94913001     0.74350
O402        O  0.32529527  0.26744577  0.99670932    -0.67240
O403        O  0.29601348  0.22507255  0.96779576    -0.54430
C404        C  0.32037641  0.24522605  0.98229735     0.72730
Zr405      Zr  0.30246510  0.28901550  0.00675582     2.77540
O406        O  0.33287761  0.32412158  0.94556716    -0.97980
O407        O  0.34536492  0.30420588  0.04618452    -0.78810
Zr408      Zr  0.24962705  0.28398758  0.91521093     2.70070
O409        O  0.28873924  0.32564862  0.87147360    -0.80050
O410        O  0.21613916  0.27710451  0.85701273    -0.99140
Zr411      Zr  0.24894871  0.21601117  0.96735566     2.21500
Zr412      Zr  0.24236373  0.29215164  0.03554361     2.11130
O413        O  0.27515779  0.30551283  0.97804152    -2.47820
O414        O  0.27728633  0.26724566  0.94322293    -0.79850
O415        O  0.27100018  0.27657751  0.06442174    -0.72040
O416        O  0.22179097  0.23342446  0.93683672    -2.33000
O417        O  0.27382704  0.23927590  0.03124635    -2.29210
O418        O  0.21741005  0.26963709  0.97150768    -0.73800
H419        H  0.19978671  0.23601107  0.08031349     0.78200
H420        H  0.21341419  0.22627295  0.90878181     0.79280
H421        H  0.28645080  0.32587519  0.96735134     0.81510
H422        H  0.28549554  0.23362294  0.04407023     0.79120
H423        H  0.16349280  0.23107766  0.91846430     0.42150
H424        H  0.20274064  0.27836634  0.87143685     0.41120
H425        H  0.29884938  0.31846093  0.86222513     0.40800
H426        H  0.35131166  0.33641006  0.95921773     0.38730
H427        H  0.33936931  0.29161909  0.07526863     0.41870
H428        H  0.29070232  0.23743707  0.13220414     0.36650
H429        H  0.19751740  0.16696805  0.11493096     0.42770
H430        H  0.14868859  0.18473075  0.06296310     0.39180
H431        H  0.32689445  0.33678767  0.93607322     0.44100
H432        H  0.26639215  0.21626471  0.16642976     0.42820
H433        H  0.16473129  0.17112061  0.06222167     0.42960
H434        H  0.22645367  0.29501149  0.83557516     0.43320
O435        O  0.17730625  0.17934364  0.43134926    -0.75550
O436        O  0.16415485  0.20968541  0.42312065    -0.54460
C437        C  0.16009554  0.18539159  0.41998925     0.78180
O438        O  0.22875941  0.23229526  0.64670289    -0.60150
O439        O  0.26917806  0.23763960  0.63728531    -0.53180
C440        C  0.25063106  0.23433983  0.66194234     0.70190
O441        O  0.16929018  0.23861440  0.55798338    -0.74710
O442        O  0.16805555  0.25015115  0.48238979    -0.55280
C443        C  0.15948987  0.24507414  0.52277413     0.76190
O444        O  0.22532836  0.16545680  0.53273674    -0.59860
O445        O  0.26317663  0.19334115  0.57507601    -0.52980
C446        C  0.24347265  0.16848978  0.56176338     0.72780
Zr447      Zr  0.21156742  0.19317192  0.48862894     2.54710
O448        O  0.17066834  0.14780813  0.52198018    -0.80420
O449        O  0.21994698  0.16926539  0.43979331    -0.93840
Zr450      Zr  0.20719569  0.23465746  0.57463177     2.64680
O451        O  0.16884024  0.18715754  0.60802859    -0.98790
O452        O  0.20493593  0.26085224  0.62771694    -0.80860
O453        O  0.19119634  0.21575124  0.50501187    -0.84210
O454        O  0.22554703  0.20995880  0.55958136    -2.18920
O455        O  0.31227377  0.26607678  0.44261162    -0.67600
O456        O  0.31245040  0.25002276  0.51682119    -0.52170
C457        C  0.32189900  0.25837604  0.47630433     0.71170
O458        O  0.25497012  0.33318095  0.46424977    -0.60510
O459        O  0.21671691  0.30422865  0.42342353    -0.52490
C460        C  0.23660680  0.32936071  0.43493590     0.72970
O461        O  0.28804780  0.30278323  0.58512195    -0.71910
O462        O  0.31471397  0.28826723  0.58345971    -0.50580
C463        C  0.31193382  0.30807246  0.58907446     0.74350
O464        O  0.25330124  0.27249232  0.35461103    -0.67240
O465        O  0.21097408  0.26282185  0.36442928    -0.54430
C466        C  0.23091005  0.26931302  0.33952158     0.72730
Zr467      Zr  0.27271862  0.26612498  0.42647294     2.77540
O468        O  0.30976598  0.31388208  0.39162276    -0.97980
O469        O  0.27467986  0.23934735  0.37411734    -0.78810
Zr470      Zr  0.26962234  0.30729313  0.51276257     2.70070
O471        O  0.31509943  0.34634986  0.48113179    -0.80050
O472        O  0.26753643  0.33984323  0.55223344    -0.99140
Zr473      Zr  0.20535788  0.25509172  0.44628708     2.21500
Zr474      Zr  0.27478486  0.24355203  0.55558077     2.11130
O475        O  0.28911929  0.28375003  0.49691177    -2.47820
O476        O  0.25407876  0.28989263  0.44271204    -0.79850
O477        O  0.25992526  0.22679692  0.48382742    -0.72040
O478        O  0.22111610  0.27393045  0.51655798    -2.33000
O479        O  0.22468800  0.23126961  0.43028737    -2.29210
O480        O  0.25540437  0.26797775  0.56953672    -0.73800
H481        H  0.21992652  0.19424913  0.58330285     0.78200
H482        H  0.21400200  0.28449564  0.52199458     0.79280
H483        H  0.30906822  0.29721000  0.49608047     0.81510
H484        H  0.21854541  0.22387296  0.40184006     0.79120
H485        H  0.22145435  0.28104946  0.62073023     0.42150
H486        H  0.24846424  0.33433121  0.54754475     0.41120
H487        H  0.31110770  0.35411866  0.45246573     0.40800
H488        H  0.32450456  0.32183398  0.41449988     0.38730
H489        H  0.27138889  0.22191282  0.39275050     0.41870
H490        H  0.21984879  0.17816102  0.40912627     0.36650
H491        H  0.17183907  0.14982492  0.55415934     0.42770
H492        H  0.17770976  0.17877313  0.62587731     0.39180
H493        H  0.31730192  0.31000790  0.36822632     0.44100
H494        H  0.20274262  0.14928905  0.44172264     0.42820
H495        H  0.16108417  0.19132172  0.63061446     0.42960
H496        H  0.26798566  0.33344623  0.58439824     0.43320
C497        C  0.27352151  0.26023588  0.77667940    -0.09420
C498        C  0.25529510  0.23511443  0.80569823     0.06780
C499        C  0.23735606  0.20881031  0.78721280    -0.03190
C500        C  0.23709887  0.20851325  0.74053809    -0.07630
C501        C  0.25476260  0.23402066  0.71147178     0.05890
C502        C  0.27330644  0.25991078  0.73045626    -0.02660
Br503      Br  0.29675000  0.29640077  0.69495432    -0.02350
H504        H  0.28734248  0.28071474  0.78988864     0.09810
H505        H  0.22226097  0.18846992  0.72670826     0.07820
Br506      Br  0.21084187  0.17334658  0.82327625    -0.02780
C507        C  0.24827746  0.29598914  0.21550313    -0.09420
C508        C  0.22937126  0.27036386  0.19631757     0.06780
C509        C  0.20826738  0.24591767  0.22402372    -0.03190
C510        C  0.20756251  0.24677004  0.27008317    -0.07630
C511        C  0.22784283  0.27163437  0.28984943     0.05890
C512        C  0.24777375  0.29666013  0.26178578    -0.02660
Br513      Br  0.27516829  0.33201075  0.28580358    -0.02350
H514        H  0.26449470  0.31507548  0.19498872     0.09810
H515        H  0.19206554  0.22732426  0.29097629     0.07820
Br516      Br  0.18008931  0.21051244  0.20068766    -0.02780
C517        C  0.26599607  0.38337796  0.41977007    -0.09420
C518        C  0.23989851  0.35680162  0.41523248     0.06780
C519        C  0.21789181  0.35807331  0.39814679    -0.03190
C520        C  0.22119875  0.38459533  0.39308889    -0.07630
C521        C  0.24618056  0.41026927  0.40461984     0.05890
C522        C  0.26923423  0.40973762  0.41488395    -0.02660
Br523      Br  0.30453370  0.44321491  0.42981253    -0.02350
H524        H  0.28381628  0.38353570  0.43067579     0.09810
H525        H  0.20323530  0.38457670  0.38430546     0.07820
Br526      Br  0.18225668  0.32439486  0.38511266    -0.02780
C527        C  0.25635271  0.11009801  0.58966046    -0.09420
C528        C  0.22988033  0.08495126  0.58059925     0.06780
C529        C  0.20767081  0.08723708  0.57633948    -0.03190
C530        C  0.21250352  0.11424673  0.57626482    -0.07630
C531        C  0.23954624  0.14019296  0.57866149     0.05890
C532        C  0.26136779  0.13739836  0.58827425    -0.02660
Br533      Br  0.29881748  0.17032853  0.59423765    -0.02350
H534        H  0.27396077  0.10911719  0.59351326     0.09810
H535        H  0.19497508  0.11527386  0.57021706     0.07820
Br536      Br  0.17106614  0.05552129  0.56320628    -0.02780
C537        C  0.20130758  0.45656057  0.72793119    -0.09420
C538        C  0.21959707  0.48215582  0.69982111     0.06780
C539        C  0.23502584  0.00860692  0.71725846    -0.03190
C540        C  0.23320777  0.00911010  0.76259263    -0.07630
C541        C  0.21627721  0.48345592  0.79214842     0.05890
C542        C  0.19947520  0.45699979  0.77383723    -0.02660
Br543      Br  0.17421377  0.42087887  0.80914081    -0.02350
H544        H  0.18872295  0.43616343  0.71426576     0.09810
H545        H  0.24568978  0.02997189  0.77486360     0.07820
Br546      Br  0.25863518  0.04485919  0.68020661    -0.02780
C547        C  0.28711430  0.02814424  0.22161025    -0.09420
C548        C  0.27026337  0.03235400  0.19192078     0.06780
C549        C  0.25032914  0.03427432  0.20895179    -0.03190
C550        C  0.24613896  0.02991690  0.25505486    -0.07630
C551        C  0.26150157  0.02344984  0.28529325     0.05890
C552        C  0.28305745  0.02368297  0.26789873    -0.02660
Br553      Br  0.30660582  0.01567365  0.30355055    -0.02350
H554        H  0.30213061  0.02613354  0.20867899     0.09810
H555        H  0.23015171  0.03075551  0.26709304     0.07820
Br556      Br  0.22717493  0.04124846  0.17016434    -0.02780
C557        C  0.25043154  0.40562083  0.95641600    -0.09420
C558        C  0.22703976  0.40199750  0.93503145     0.06780
C559        C  0.20913584  0.37695380  0.91368795    -0.03190
C560        C  0.21517997  0.35655677  0.91401409    -0.07630
C561        C  0.23859849  0.36034481  0.93669162     0.05890
C562        C  0.25625993  0.38556535  0.95766184    -0.02660
Br563      Br  0.28835790  0.39386594  0.99130443    -0.02350
H564        H  0.26409419  0.42396649  0.97412678     0.09810
H565        H  0.20093862  0.33719765  0.89831508     0.07820
Br566      Br  0.17628915  0.36961008  0.88484283    -0.02780
C567        C  0.28684011  0.16206864  0.07318806    -0.09420
C568        C  0.26008912  0.15506172  0.07699850     0.06780
C569        C  0.23789357  0.12590793  0.08697405    -0.03190
C570        C  0.24166705  0.10437929  0.08549074    -0.07630
C571        C  0.26744539  0.11123391  0.07372232     0.05890
C572        C  0.29070026  0.14021830  0.07257390    -0.02660
Br573      Br  0.32736575  0.15071320  0.06765605    -0.02350
H574        H  0.30446530  0.18455954  0.06767130     0.09810
H575        H  0.22360231  0.08206500  0.08933723     0.07820
Br576      Br  0.20131458  0.11437236  0.09713762    -0.02780
C577        C  0.37177668  0.12348156  0.52485108    -0.09420
C578        C  0.37945061  0.15054598  0.50306559     0.06780
C579        C  0.37096700  0.15180737  0.45806086    -0.03190
C580        C  0.35426243  0.12663650  0.43754189    -0.07630
C581        C  0.34625162  0.09967296  0.45976100     0.05890
C582        C  0.35614927  0.09858048  0.50348920    -0.02660
Br583      Br  0.34805767  0.06394883  0.53770493    -0.02350
H584        H  0.37895305  0.12184740  0.55858261     0.09810
H585        H  0.34679276  0.12797856  0.40392952     0.07820
Br586      Br  0.38353192  0.18644718  0.41929669    -0.02780
C587        C  0.10825187  0.34532225  0.50146500    -0.09420
C588        C  0.09715510  0.35208624  0.46288914     0.06780
C589        C  0.10259059  0.37988644  0.45642431    -0.03190
C590        C  0.11802236  0.39948834  0.48797151    -0.07630
C591        C  0.13010519  0.39308750  0.52535734     0.05890
C592        C  0.12458812  0.36532081  0.53199550    -0.02660
Br593      Br  0.13840338  0.35307408  0.58294271    -0.02350
H594        H  0.10349510  0.32396499  0.50914907     0.09810
H595        H  0.12196212  0.42056496  0.48151467     0.07820
Br596      Br  0.09072017  0.39317462  0.40392174    -0.02780
C597        C  0.38463955  0.27159868  0.42612342    -0.09420
C598        C  0.38197267  0.24644920  0.44570933     0.06780
C599        C  0.35840922  0.22497074  0.47251480    -0.03190
C600        C  0.33963317  0.22994266  0.48217354    -0.07630
C601        C  0.34354113  0.25590323  0.46598592     0.05890
C602        C  0.36552866  0.27651522  0.43615411    -0.02660
Br603      Br  0.37193094  0.31271699  0.41214895    -0.02350
H604        H  0.40292655  0.28860319  0.40664221     0.09810
H605        H  0.32185272  0.21339206  0.50308453     0.07820
Br606      Br  0.35090726  0.18927077  0.50180100    -0.02780
C607        C  0.09711665  0.23859168  0.56128569    -0.09420
C608        C  0.09748077  0.25884226  0.52844664     0.06780
C609        C  0.12014188  0.27659277  0.49866713    -0.03190
C610        C  0.14034911  0.27208584  0.49937665    -0.07630
C611        C  0.13857849  0.24987110  0.52863217     0.05890
C612        C  0.11759517  0.23394019  0.56166756    -0.02660
Br613      Br  0.11424427  0.20408168  0.60516355    -0.02350
H614        H  0.07983624  0.22487397  0.58438438     0.09810
H615        H  0.15729821  0.28565116  0.47564637     0.07820
Br616      Br  0.12470330  0.30636029  0.45368830    -0.02780
C617        C  0.48545046  0.27116976  0.74916525    -0.09420
C618        C  0.48310407  0.24763859  0.77631811     0.06780
C619        C  0.47088113  0.22159971  0.75761272    -0.03190
C620        C  0.46298578  0.22026217  0.71267569    -0.07630
C621        C  0.46720698  0.24439181  0.68522739     0.05890
C622        C  0.47794375  0.26980409  0.70397462    -0.02660
Br623      Br  0.98571469  0.30415218  0.66773732    -0.02350
H624        H  0.99440012  0.29129363  0.76252048     0.09810
H625        H  0.45537795  0.20083219  0.69809676     0.07820
Br626      Br  0.46469076  0.18699564  0.78977335    -0.02780
C627        C  0.00129850  0.22778400  0.22148496    -0.09420
C628        C  0.99897149  0.24714491  0.19040337     0.06780
C629        C  0.00405535  0.27187877  0.20602629    -0.03190
C630        C  0.00908316  0.27533950  0.25140152    -0.07630
C631        C  0.00978937  0.25517417  0.28258271     0.05890
C632        C  0.00655891  0.23158173  0.26707414    -0.02660
Br633      Br  0.00670587  0.20264012  0.30737363    -0.02350
H634        H  0.99812649  0.20903442  0.21065882     0.09810
H635        H  0.01161342  0.29364452  0.26282255     0.07820
Br636      Br  0.00502711  0.30261881  0.16865385    -0.02780
C637        C  0.38039656  0.10893586  0.93712270    -0.09420
C638        C  0.36048277  0.11451118  0.93008255     0.06780
C639        C  0.36637348  0.13907779  0.90175814    -0.03190
C640        C  0.39304244  0.15927066  0.88464076    -0.07630
C641        C  0.41417166  0.15563221  0.89636940     0.05890
C642        C  0.40730911  0.12933603  0.92076534    -0.02660
Br643      Br  0.43351462  0.12045156  0.93564860    -0.02350
H644        H  0.37493970  0.08863742  0.95566084     0.09810
H645        H  0.39780155  0.17897367  0.86473304     0.07820
Br646      Br  0.33920004  0.14673926  0.88819645    -0.02780
C647        C  0.08313170  0.36903246  0.09137636    -0.09420
C648        C  0.07896365  0.34310494  0.08644757     0.06780
C649        C  0.10246544  0.34355587  0.08284306    -0.03190
C650        C  0.12710072  0.36914915  0.06677571    -0.07630
C651        C  0.13005260  0.39511499  0.06380102     0.05890
C652        C  0.10960210  0.39501649  0.08409274    -0.02660
Br653      Br  0.11759197  0.42731994  0.10940061    -0.02350
H654        H  0.06588677  0.36919914  0.09898459     0.09810
H655        H  0.14426192  0.36894965  0.05865988     0.07820
Br656      Br  0.10183709  0.31021904  0.10144045    -0.02780
C657        C  0.37167238  0.26976438  0.99475113    -0.09420
C658        C  0.34532744  0.24418257  0.98642636     0.06780
C659        C  0.34405953  0.21899304  0.98750730    -0.03190
C660        C  0.36731647  0.21909969  0.00152497    -0.07630
C661        C  0.39322483  0.24428688  0.01296029     0.05890
C662        C  0.39520853  0.27015139  0.00675582    -0.02660
Br663      Br  0.42962756  0.30728019  0.00987053    -0.02350
H664        H  0.37427617  0.29015814  0.99167765     0.09810
H665        H  0.36517676  0.19915097  0.00172749     0.07820
Br666      Br  0.31208062  0.18446261  0.96715326    -0.02780
C667        C  0.09627332  0.23848481  0.99367665    -0.09420
C668        C  0.09846908  0.25482148  0.95253574     0.06780
C669        C  0.12521211  0.27512380  0.93381949    -0.03190
C670        C  0.14886336  0.27902401  0.95603561    -0.07630
C671        C  0.14678011  0.26292314  0.99751623     0.05890
C672        C  0.11978015  0.24216911  0.01577679    -0.02660
Br673      Br  0.11379853  0.21814673  0.07141154    -0.02350
H674        H  0.07619778  0.22340639  0.00963814     0.09810
H675        H  0.16874662  0.29333044  0.93942816     0.07820
Br676      Br  0.12966133  0.29577509  0.87555904    -0.02780
C677        C  0.38194175  0.37601795  0.61835360    -0.09420
C678        C  0.38047243  0.39773412  0.59258625     0.06780
C679        C  0.35548192  0.38919544  0.57079472    -0.03190
C680        C  0.33309196  0.36022113  0.57503192    -0.07630
C681        C  0.33552938  0.33828088  0.59542433     0.05890
C682        C  0.36014036  0.34642480  0.61851116    -0.02660
Br683      Br  0.36554541  0.31841154  0.64877492    -0.02350
H684        H  0.40142153  0.38191799  0.63370094     0.09810
H685        H  0.31457526  0.35471523  0.55717117     0.07820
Br686      Br  0.35279164  0.41364249  0.52358256    -0.02780
C687        C  0.12711417  0.14861598  0.37030627    -0.09420
C688        C  0.13279423  0.15970048  0.41136482     0.06780
C689        C  0.11927467  0.14042061  0.45003720    -0.03190
C690        C  0.10396538  0.11086396  0.44866737    -0.07630
C691        C  0.09578712  0.09957817  0.40787445     0.05890
C692        C  0.10712955  0.11880753  0.36808392    -0.02660
Br693      Br  0.09591378  0.10492659  0.31102402    -0.02350
H694        H  0.13827260  0.16298620  0.34040860     0.09810
H695        H  0.09553581  0.09639373  0.47938579     0.07820
Br696      Br  0.12237224  0.15393979  0.50607400    -0.02780
C697        C  0.36154521  0.02323923  0.47123670    -0.09420
C698        C  0.34200231  0.50293438  0.50464548     0.06780
C699        C  0.34407782  0.48173077  0.52875606    -0.03190
C700        C  0.36545067  0.48083522  0.51878078    -0.07630
C701        C  0.38408190  0.99981240  0.48369129     0.05890
C702        C  0.38238805  0.02151192  0.46001293    -0.02660
Br703      Br  0.40836671  0.04990113  0.41436204    -0.02350
H704        H  0.35965267  0.03957341  0.45241867     0.09810
H705        H  0.36800733  0.46563835  0.53960385     0.07820
Br706      Br  0.31715932  0.45179827  0.57208509    -0.02780
C707        C  0.12227938  0.99054608  0.52608975    -0.09420
C708        C  0.12927981  0.48943961  0.48329902     0.06780
C709        C  0.11223447  0.48676618  0.44673922    -0.03190
C710        C  0.09006666  0.48751013  0.45297243    -0.07630
C711        C  0.08497432  0.99155461  0.49488232     0.05890
C712        C  0.10064726  0.99195809  0.53212755    -0.02660
Br713      Br  0.09548960  0.99632856  0.59144469    -0.02350
H714        H  0.13428329  0.99148144  0.55560693     0.09810
H715        H  0.07710135  0.48554284  0.42430787     0.07820
Br716      Br  0.11726044  0.48156755  0.38814413    -0.02780
C717        C  0.46361046  0.34760992  0.46533207    -0.09420
C718        C  0.47905134  0.34814516  0.50360246     0.06780
C719        C  0.49964174  0.37552870  0.51770990    -0.03190
C720        C  0.00453768  0.40113683  0.49388580    -0.07630
C721        C  0.48891721  0.40056833  0.45596554     0.05890
C722        C  0.46837947  0.37328157  0.44178276    -0.02660
Br723      Br  0.44727372  0.37028540  0.38867969    -0.02350
H724        H  0.44859833  0.32727692  0.45237991     0.09810
H725        H  0.01963687  0.42148944  0.50673043     0.07820
Br726      Br  0.02092124  0.37922656  0.57098996    -0.02780
C727        C  0.47686917  0.10309746  0.46922086    -0.09420
C728        C  0.48412706  0.09892033  0.51367587     0.06780
C729        C  0.49967338  0.12344441  0.53696468    -0.03190
C730        C  0.50730063  0.15091932  0.51627775    -0.07630
C731        C  0.49991382  0.15502503  0.47175211     0.05890
C732        C  0.98446336  0.13045627  0.44850703    -0.02660
Br733      Br  0.97411701  0.13348572  0.38725140    -0.02350
H734        H  0.96664728  0.08528896  0.44946533     0.09810
H735        H  0.51793498  0.16885615  0.53585551     0.07820
Br736      Br  0.51024270  0.11998001  0.59793235    -0.02780
C737        C  0.00193501  0.01745410  0.75932998    -0.09420
C738        C  0.48166085  0.49219347  0.78589762     0.06780
C739        C  0.45960340  0.46830940  0.76564360    -0.03190
C740        C  0.45875454  0.46986298  0.71907523    -0.07630
C741        C  0.47957573  0.49494572  0.69301022     0.05890
C742        C  0.00100223  0.01897335  0.71314939    -0.02660
Br743      Br  0.02917565  0.05440735  0.67883169    -0.02350
H744        H  0.01877560  0.03605657  0.77459034     0.09810
H745        H  0.44214223  0.45142981  0.70322642     0.07820
Br746      Br  0.42965864  0.43398043  0.79947791    -0.02780
C747        C  0.47688046  0.47873716  0.22030024    -0.09420
C748        C  0.49589907  0.00496273  0.19405031     0.06780
C749        C  0.01510528  0.03012017  0.21439453    -0.03190
C750        C  0.01399419  0.02882106  0.26045902    -0.07630
C751        C  0.99423278  0.00280280  0.28587615     0.05890
C752        C  0.47606741  0.47751122  0.26614694    -0.02660
Br753      Br  0.45044155  0.44089125  0.30079108    -0.02350
H754        H  0.46233973  0.45915816  0.20510961     0.09810
H755        H  0.02843806  0.04806395  0.27649344     0.07820
Br756      Br  0.04406319  0.06610517  0.18199158    -0.02780
C757        C  0.38607534  0.38472479  0.00236148    -0.09420
C758        C  0.38596009  0.39945600  0.96069899     0.06780
C759        C  0.36123338  0.39678911  0.94824217    -0.03190
C760        C  0.33771293  0.37983088  0.97644109    -0.07630
C761        C  0.33810237  0.36580199  0.01862152     0.05890
C762        C  0.36334275  0.36976028  0.03196866    -0.02660
Br763      Br  0.36895879  0.35774225  0.09224396    -0.02350
H764        H  0.40438528  0.38601012  0.01348620     0.09810
H765        H  0.31863230  0.37626342  0.96378552     0.07820
Br766      Br  0.35764140  0.41381317  0.89090635    -0.02780
C767        C  0.14901709  0.12169425  0.01896684    -0.09420
C768        C  0.15077530  0.13847558  0.97883153     0.06780
C769        C  0.12606806  0.13511855  0.96241406    -0.03190
C770        C  0.10143920  0.11733207  0.98735202    -0.07630
C771        C  0.09971825  0.10078700  0.02766697     0.05890
C772        C  0.12390662  0.10279300  0.04290108    -0.02660
Br773      Br  0.12399696  0.08028830  0.09663202    -0.02350
H774        H  0.16748261  0.12414150  0.03274406     0.09810
H775        H  0.08292539  0.11472850  0.97322077     0.07820
Br776      Br  0.12369933  0.15287579  0.90462370    -0.02780
C777        C  0.36053604  0.50328738  0.07003975    -0.09420
C778        C  0.36239973  0.02900652  0.05821715     0.06780
C779        C  0.38984969  0.05487189  0.05189447    -0.03190
C780        C  0.41333637  0.05396261  0.05047780    -0.07630
C781        C  0.41062250  0.02750469  0.05825400     0.05890
C782        C  0.38370712  0.50245472  0.07116628    -0.02660
Br783      Br  0.37681069  0.46544747  0.09021772    -0.02350
H784        H  0.34038122  0.48301278  0.07745452     0.09810
H785        H  0.43347353  0.07389504  0.04159660     0.07820
Br786      Br  0.39632835  0.09179810  0.04567202    -0.02780
C787        C  0.11010382  0.47427229  0.89824179    -0.09420
C788        C  0.12312277  0.47445267  0.94002799     0.06780
C789        C  0.10918458  0.47159022  0.97805317    -0.03190
C790        C  0.08322704  0.46687288  0.97511081    -0.07630
C791        C  0.07107646  0.46895329  0.93408527     0.05890
C792        C  0.08509186  0.47272763  0.89506259    -0.02660
Br793      Br  0.07225714  0.47858746  0.83715724    -0.02350
H794        H  0.12045282  0.47765926  0.86782226     0.09810
H795        H  0.07401975  0.96515225  0.00576151     0.07820
Br796      Br  0.12681356  0.97956450  0.03480044    -0.02780
C797        C  0.49744625  0.35831641  0.03429712    -0.09420
C798        C  0.50542690  0.35814152  0.99168135     0.06780
C799        C  0.00975282  0.37915047  0.95645321    -0.03190
C800        C  0.00212026  0.39686226  0.96246656    -0.07630
C801        C  0.99188137  0.39519486  0.00387869     0.05890
C802        C  0.49032682  0.37638687  0.04041036    -0.02660
Br803      Br  0.47435996  0.37092662  0.09680762    -0.02350
H804        H  0.49430455  0.34265941  0.06256767     0.09810
H805        H  0.00338831  0.41129213  0.93392631     0.07820
Br806      Br  0.02621589  0.38521321  0.90022477    -0.02780
C807        C  0.52968932  0.13883258  0.92893835    -0.09420
C808        C  0.53815196  0.12874175  0.96659698     0.06780
C809        C  0.04652647  0.14300368  0.00502279    -0.03190
C810        C  0.03851752  0.16058564  0.00992526    -0.07630
C811        C  0.52373389  0.16521489  0.97580231     0.05890
C812        C  0.52213248  0.15690231  0.93307215    -0.02660
Br813      Br  0.50785006  0.16647831  0.87934368    -0.02350
H814        H  0.52480156  0.12926370  0.89821669     0.09810
H815        H  0.04213483  0.16882952  0.04156950     0.07820
Br816      Br  0.06486786  0.13579784  0.05445253    -0.02780
O817        O  0.06851046  0.55187569  0.05162435    -0.75550
O818        O  0.05039135  0.57655293  0.04189185    -0.54460
C819        C  0.07163227  0.57565699  0.04425550     0.78180
O820        O  0.99110607  0.51592814  0.84776731    -0.60150
O821        O  0.97994524  0.97015813  0.85929383    -0.53180
C822        C  0.98403994  0.99242604  0.83423127     0.70190
O823        O  0.02509193  0.58681951  0.93696349    -0.74710
O824        O  0.51579954  0.58421965  0.00989124    -0.55280
C825        C  0.52641751  0.59812926  0.97155156     0.76190
O826        O  0.06267813  0.49980085  0.95663189    -0.59860
O827        O  0.02490137  0.96164197  0.92606475    -0.52980
C828        C  0.05129021  0.97730514  0.93689165     0.72780
Zr829      Zr  0.04692820  0.52084673  0.99504359     2.54710
O830        O  0.08662023  0.56222210  0.95206639    -0.80420
O831        O  0.07267456  0.50579383  0.04198438    -0.93840
Zr832      Zr  0.00136545  0.53830068  0.91517129     2.64680
O833        O  0.03818396  0.57326146  0.86148256    -0.98790
O834        O  0.47149960  0.55065631  0.87687161    -0.80860
O835        O  0.02811354  0.54751921  0.98026268    -0.84210
O836        O  0.02057773  0.51161895  0.92813190    -2.18920
O837        O  0.48985904  0.92725829  0.04061570    -0.67600
O838        O  0.97041772  0.91601539  0.97235049    -0.52170
C839        C  0.98270575  0.91311599  0.00678734     0.71170
O840        O  0.42179474  0.00309844  0.01982489    -0.60510
O841        O  0.45846953  0.53862929  0.05607278    -0.52490
C842        C  0.43225660  0.52355366  0.04415001     0.72970
O843        O  0.41846944  0.94762170  0.92739738    -0.71910
O844        O  0.43273230  0.91979741  0.93506547    -0.50580
C845        C  0.41292223  0.92255548  0.93667126     0.74350
O846        O  0.48840893  0.98144233  0.13287241    -0.67240
O847        O  0.49996077  0.52736291  0.12053645    -0.54430
C848        C  0.49492393  0.50483538  0.14598077     0.72730
Zr849      Zr  0.48141699  0.96004644  0.06570958     2.77540
O850        O  0.43720237  0.91755048  0.09590109    -0.97980
O851        O  0.00031798  0.94415472  0.12736851    -0.78810
Zr852      Zr  0.43514757  0.97737318  0.98674149     2.70070
O853        O  0.39895617  0.93664522  0.03598197    -0.80050
O854        O  0.39874896  0.97942418  0.94819111    -0.99140
Zr855      Zr  0.49912659  0.53676036  0.04092921     2.21500
Zr856      Zr  0.98275400  0.96153852  0.93911506     2.11130
O857        O  0.45430446  0.95073674  0.00185901    -2.47820
O858        O  0.46185985  0.98656065  0.05295697    -0.79850
O859        O  0.01013581  0.97178519  0.00502629    -0.72040
O860        O  0.47193458  0.52721638  0.97467345    -2.33000
O861        O  0.01828451  0.50947097  0.05652439    -2.29210
O862        O  0.46364576  0.98880639  0.92501431    -0.73800
H863        H  0.03174719  0.51573490  0.90289613     0.78200
H864        H  0.46526941  0.53907724  0.96909258     0.79280
H865        H  0.44002811  0.93063131  0.00884121     0.81510
H866        H  0.02852019  0.51318649  0.08415527     0.79120
H867        H  0.47800105  0.56923080  0.88685303     0.42150
H868        H  0.40199329  0.98125151  0.91592326     0.41120
H869        H  0.40747966  0.93901913  0.06602520     0.40800
H870        H  0.43753295  0.90105065  0.09201656     0.38730
H871        H  0.02056842  0.95703112  0.12199627     0.41870
H872        H  0.07657476  0.51406635  0.07032903     0.36650
H873        H  0.07854481  0.56917696  0.92857462     0.42770
H874        H  0.04534018  0.56298923  0.85252832     0.39180
H875        H  0.43884350  0.91825658  0.12858614     0.44100
H876        H  0.05883545  0.48476319  0.05054173     0.42820
H877        H  0.02853764  0.57542462  0.83461137     0.42960
H878        H  0.38150081  0.95976649  0.95532444     0.43320
O879        O  0.46534258  0.92204197  0.43998313    -0.75550
O880        O  0.01155702  0.95260780  0.43543506    -0.54460
C881        C  0.98888815  0.92654640  0.44063388     0.78180
O882        O  0.41756228  0.50232210  0.44263283    -0.60150
O883        O  0.41732526  0.49724258  0.51906734    -0.53180
C884        C  0.40791059  0.49992574  0.48084030     0.70190
O885        O  0.47283807  0.50191162  0.34700761    -0.74710
O886        O  0.01112305  0.50158685  0.35685687    -0.55280
C887        C  0.99270104  0.50218388  0.33302506     0.76190
O888        O  0.41809744  0.91644886  0.54967742    -0.59860
O889        O  0.41440561  0.94977196  0.57328480    -0.52980
C890        C  0.40638163  0.92348952  0.57190758     0.72780
Zr891      Zr  0.45188749  0.93879209  0.49307896     2.54710
O892        O  0.40861981  0.90748930  0.45437113    -0.80420
O893        O  0.44838480  0.89719062  0.53508787    -0.93840
Zr894      Zr  0.45462746  0.50146268  0.41630271     2.64680
O895        O  0.41362777  0.96701807  0.37602170    -0.98790
O896        O  0.45904621  0.54181646  0.36782743    -0.80860
O897        O  0.46903342  0.97046124  0.42586365    -0.84210
O898        O  0.43684739  0.96886802  0.48279849    -2.18920
O899        O  0.49861295  0.99324547  0.63111987    -0.67600
O900        O  0.46347112  0.99862327  0.62100578    -0.52170
C901        C  0.48028906  0.99531063  0.64527691     0.71170
O902        O  0.04984597  0.57747806  0.41656920    -0.60510
O903        O  0.06210702  0.54758819  0.41364837    -0.52490
C904        C  0.06756236  0.57303294  0.40993136     0.72970
O905        O  0.50843248  0.57885998  0.52824083    -0.71910
O906        O  0.46228673  0.54650258  0.53276224    -0.50580
C907        C  0.48446686  0.57306328  0.52777132     0.74350
O908        O  0.05201770  0.49121974  0.53403045    -0.67240
O909        O  0.05822682  0.50471513  0.45896418    -0.54430
C910        C  0.06389164  0.49632725  0.49670223     0.72730
Zr911      Zr  0.01763799  0.49578189  0.56126994     2.77540
O912        O  0.05940014  0.52955987  0.60092878    -0.97980
O913        O  0.01331039  0.95613188  0.61175086    -0.78810
Zr914      Zr  0.02163328  0.55891894  0.48188981     2.70070
O915        O  0.06179917  0.58761832  0.52829969    -0.80050
O916        O  0.03296634  0.60446622  0.44098130    -0.99140
Zr917      Zr  0.01798975  0.49971373  0.43519678     2.21500
Zr918      Zr  0.45557142  0.49828559  0.54219602     2.11130
O919        O  0.50451878  0.52772716  0.55003925    -2.47820
O920        O  0.03667448  0.52881627  0.49492924    -0.79850
O921        O  0.46900338  0.96644793  0.55393022    -0.72040
O922        O  0.00313091  0.53036476  0.42183357    -2.33000
O923        O  0.00013989  0.96700583  0.50280650    -2.29210
O924        O  0.47288849  0.53071692  0.47490014    -0.73800
H925        H  0.41684956  0.95706226  0.48260861     0.78200
H926        H  0.00911166  0.54149889  0.39265440     0.79280
H927        H  0.51040915  0.53888905  0.57473771     0.81510
H928        H  0.00572719  0.95426255  0.50956830     0.79120
H929        H  0.47863351  0.55464801  0.35793476     0.42150
H930        H  0.51518358  0.59984818  0.42810677     0.41120
H931        H  0.06478176  0.57368637  0.54564127     0.40800
H932        H  0.05473717  0.54065249  0.61472776     0.38730
H933        H  0.49468585  0.93886296  0.60548665     0.41870
H934        H  0.46770293  0.90401952  0.54186140     0.36650
H935        H  0.41377040  0.91262980  0.42231013     0.42770
H936        H  0.41776133  0.95417958  0.36690904     0.39180
H937        H  0.06044531  0.51726977  0.62649689     0.44100
H938        H  0.44184593  0.88324826  0.51337085     0.42820
H939        H  0.41411387  0.97853607  0.34775033     0.42960
H940        H  0.03774492  0.61732562  0.46372187     0.43320
O941        O  0.07742193  0.77915361  0.93695866    -0.75550
O942        O  0.05024053  0.73224840  0.92836468    -0.54460
C943        C  0.07426861  0.75542775  0.93632953     0.78180
O944        O  0.99696751  0.72546190  0.12661865    -0.60150
O945        O  0.98297849  0.75484853  0.11845995    -0.53180
C946        C  0.99228819  0.74189801  0.14233189     0.70190
O947        O  0.51356467  0.68764414  0.02291179    -0.74710
O948        O  0.49390632  0.67824219  0.95556731    -0.55280
C949        C  0.50948010  0.67742752  0.98568656     0.76190
O950        O  0.05930399  0.82236085  0.02153762    -0.59860
O951        O  0.03010832  0.80655512  0.07855887    -0.52980
C952        C  0.05463466  0.82247179  0.06179352     0.72780
Zr953      Zr  0.05365576  0.78281883  0.99247796     2.54710
O954        O  0.07326461  0.76363052  0.04679568    -0.80420
O955        O  0.10176694  0.82525299  0.98832123    -0.93840
Zr956      Zr  0.99225923  0.70739089  0.05391944     2.64680
O957        O  0.01087259  0.68866783  0.11153870    -0.98790
O958        O  0.45010890  0.66000688  0.07734466    -0.80860
O959        O  0.02570669  0.73257081  0.99500381    -0.84210
O960        O  0.02055509  0.75815217  0.05147831    -2.18920
O961        O  0.50292729  0.82630454  0.94567463    -0.67600
O962        O  0.00325538  0.81821584  0.02147924    -0.52170
C963        C  0.50457094  0.83311641  0.98516479     0.71170
O964        O  0.44668206  0.70550364  0.89791150    -0.60510
O965        O  0.46382690  0.68168756  0.89332471    -0.52490
C966        C  0.44271081  0.68193991  0.89290752     0.72970
O967        O  0.41316415  0.71932510  0.01407162    -0.71910
O968        O  0.44227807  0.76382905  0.03512010    -0.50580
C969        C  0.41784000  0.74274312  0.02241786     0.74350
O970        O  0.49056575  0.76849998  0.84222245    -0.67240
O971        O  0.50078606  0.73605158  0.84413767    -0.54430
C972        C  0.49223908  0.75086133  0.82382471     0.72730
Zr973      Zr  0.50187631  0.78921650  0.91248083     2.77540
O974        O  0.47584372  0.80272490  0.86304333    -0.97980
O975        O  0.04392696  0.83095909  0.87475727    -0.78810
Zr976      Zr  0.43958065  0.71218659  0.97054543     2.70070
O977        O  0.39995782  0.70664761  0.93027624    -0.80050
O978        O  0.40555680  0.66088313  0.99434028    -0.99140
Zr979      Zr  0.50358277  0.72320975  0.92423190     2.21500
Zr980      Zr  0.98858324  0.77085589  0.03940202     2.11130
O981        O  0.46657998  0.76316216  0.96805110    -2.47820
O982        O  0.47411359  0.73872548  0.91460666    -0.79850
O983        O  0.02357565  0.79698324  0.98235464    -0.72040
O984        O  0.46873911  0.69683995  0.98392115    -2.33000
O985        O  0.03218073  0.77484540  0.92069709    -2.29210
O986        O  0.46048619  0.71980729  0.04260961    -0.73800
H987        H  0.03115770  0.76418004  0.07855564     0.78200
H988        H  0.45712932  0.67614727  0.98362517     0.79280
H989        H  0.45543643  0.77028559  0.96133274     0.81510
H990        H  0.04480267  0.78412254  0.89557664     0.79120
H991        H  0.45410906  0.64629008  0.07212766     0.42150
H992        H  0.40964383  0.65813555  0.02633712     0.41120
H993        H  0.40679846  0.72653346  0.91690835     0.40800
H994        H  0.46167615  0.79978103  0.88245301     0.38730
H995        H  0.05543659  0.84263782  0.89896316     0.41870
H996        H  0.10456318  0.83429564  0.95681434     0.36650
H997        H  0.05750612  0.74517421  0.06216936     0.42770
H998        H  0.02742408  0.70595024  0.12319026     0.39180
H999        H  0.48883537  0.82397237  0.85546942     0.44100
H1000       H  0.11293625  0.81755319  0.99164541     0.42820
H1001       H  0.99726587  0.67889613  0.13636404     0.42960
H1002       H  0.38778474  0.65852786  0.99460607     0.43320
O1003       O  0.05801395  0.75401501  0.55273348    -0.75550
O1004       O  0.06573122  0.75820505  0.47821730    -0.54460
C1005       C  0.07222682  0.75723174  0.51957170     0.78180
O1006       O  0.42149782  0.67419752  0.53988291    -0.60150
O1007       O  0.40671833  0.70108454  0.51838771    -0.53180
C1008       C  0.40264447  0.67629160  0.52358282     0.70190
O1009       O  0.47614784  0.67527312  0.44842561    -0.74710
O1010       O  0.02194573  0.70773590  0.45531687    -0.55280
C1011       C  0.00000554  0.68111582  0.45601461     0.76190
O1012       O  0.49156023  0.74757514  0.62722758    -0.59860
O1013       O  0.45222550  0.74511396  0.60908243    -0.52980
C1014       C  0.47011792  0.74575132  0.63718620     0.72780
Zr1015     Zr  0.01542164  0.74982327  0.56464839     2.54710
O1016       O  0.00796761  0.70840016  0.61433752    -0.80420
O1017       O  0.05045472  0.78413505  0.61324945    -0.93840
Zr1018     Zr  0.45816782  0.69289400  0.48956201     2.64680
O1019       O  0.45258236  0.65275719  0.54051659    -0.98790
O1020       O  0.42181746  0.65812981  0.44306640    -0.80860
O1021       O  0.00576683  0.72231512  0.50634044    -0.84210
O1022       O  0.46757198  0.71951703  0.54996537    -2.18920
O1023       O  0.50216106  0.82664311  0.52753521    -0.67600
O1024       O  0.45621155  0.79577616  0.52240152    -0.52170
C1025       C  0.47865762  0.82197345  0.52063234     0.71170
O1026       O  0.48823042  0.75771659  0.34036715    -0.60510
O1027       O  0.02482576  0.75538005  0.35943677    -0.52490
C1028       C  0.00791355  0.75633550  0.33070164     0.72970
O1029       O  0.42157716  0.75173608  0.41878313    -0.71910
O1030       O  0.41365876  0.74669524  0.49367269    -0.50580
C1031       C  0.40726913  0.74809927  0.45250308     0.74350
O1032       O  0.05472168  0.82848870  0.42342864    -0.67240
O1033       O  0.07335204  0.80493176  0.43591833    -0.54430
C1034       C  0.07537188  0.82843309  0.43606114     0.72730
Zr1035     Zr  0.02169579  0.81315120  0.47998898     2.77540
O1036       O  0.02580454  0.85428888  0.43490613    -0.97980
O1037       O  0.05946215  0.84623292  0.52653241    -0.78810
Zr1038     Zr  0.46474685  0.75651974  0.40347933     2.70070
O1039       O  0.47473645  0.80065752  0.35929567    -0.80050
O1040       O  0.43396725  0.72962641  0.34401219    -0.99140
Zr1041     Zr  0.02810481  0.75580210  0.44094460     2.21500
Zr1042     Zr  0.45151660  0.74919086  0.52731627     2.11130
O1043       O  0.47432957  0.78347911  0.46199398    -2.47820
O1044       O  0.01267090  0.78627017  0.42007670    -0.79850
O1045       O  0.49962761  0.77942443  0.54445068    -0.72040
O1046       O  0.47969407  0.72603479  0.42418372    -2.33000
O1047       O  0.03690950  0.78322906  0.50104637    -2.29210
O1048       O  0.44251819  0.72229197  0.46705626    -0.73800
H1049       H  0.45912527  0.70727479  0.57778087     0.78200
H1050       H  0.47615364  0.71519167  0.39997108     0.79280
H1051       H  0.46768926  0.79504155  0.45153192     0.81510
H1052       H  0.05603036  0.79504071  0.50966983     0.79120
H1053       H  0.42603000  0.66877070  0.41248196     0.42150
H1054       H  0.42700981  0.70926861  0.35379292     0.41120
H1055       H  0.49518451  0.81374098  0.35678884     0.40800
H1056       H  0.50662331  0.84722910  0.42627166     0.38730
H1057       H  0.05579701  0.83473346  0.55632984     0.41870
H1058       H  0.06682522  0.79815626  0.59376506     0.36650
H1059       H  0.01365625  0.69966479  0.59655166     0.42770
H1060       H  0.47133143  0.66044209  0.55258934     0.39180
H1061       H  0.03139223  0.86826608  0.45612690     0.44100
H1062       H  0.05586889  0.77302721  0.63348020     0.42820
H1063       H  0.44866604  0.63839072  0.52124041     0.42960
H1064       H  0.41774680  0.73007202  0.34492100     0.43320
O1065       O  0.17207794  0.93883781  0.07304907    -0.75630
O1066       O  0.16174608  0.92405829  0.00365967    -0.54460
C1067       C  0.15601325  0.92136877  0.04523111     0.78180
O1068       O  0.24451181  0.57386216  0.03004518    -0.60150
O1069       O  0.28632357  0.58539514  0.05741360    -0.53180
C1070       C  0.26669733  0.58900349  0.05260206     0.70190
O1071       O  0.17063447  0.50544095  0.96246349    -0.74710
O1072       O  0.15781841  0.96429313  0.93602341    -0.55280
C1073       C  0.15246757  0.98191908  0.94520342     0.76190
O1074       O  0.24488702  0.00352016  0.13635737    -0.59860
O1075       O  0.28814238  0.54432321  0.11757981    -0.52980
C1076       C  0.26804707  0.52665221  0.14553926     0.72780
Zr1077     Zr  0.22082247  0.97569145  0.07492245     2.54710
O1078       O  0.19368988  0.96751383  0.13847009    -0.80420
O1079       O  0.22481906  0.93810757  0.11368410    -0.93840
Zr1080     Zr  0.21946827  0.53348663  0.98768752     2.64680
O1081       O  0.19393644  0.54417919  0.02857951    -0.98790
O1082       O  0.22629256  0.56887212  0.92464938    -0.80860
O1083       O  0.19777195  0.98391989  0.01311985    -0.84210
O1084       O  0.24134013  0.52483658  0.05105235    -2.18920
O1085       O  0.31646908  0.50256968  0.02964405    -0.67600
O1086       O  0.33071882  0.54488103  0.05317126    -0.52170
C1087       C  0.33503773  0.52589089  0.04672302     0.71170
O1088       O  0.24298430  0.50877596  0.85124257    -0.60510
O1089       O  0.20050721  0.96694400  0.86992830    -0.52490
C1090       C  0.21968670  0.98607644  0.84108681     0.72970
O1091       O  0.31517328  0.57791476  0.91663033    -0.71910
O1092       O  0.32818554  0.58664222  0.98916396    -0.50580
C1093       C  0.33264103  0.59204584  0.94662300     0.74350
O1094       O  0.24683063  0.95160351  0.93308391    -0.67240
O1095       O  0.20100542  0.92235996  0.93988020    -0.54430
C1096       C  0.22425096  0.92615080  0.93520285     0.72730
Zr1097     Zr  0.26964512  0.97688904  0.99777362     2.77540
O1098       O  0.30208910  0.97421874  0.95900608    -0.97980
O1099       O  0.25809910  0.93402053  0.04826505    -0.78810
Zr1100     Zr  0.26887836  0.53502321  0.91301301     2.70070
O1101       O  0.29915969  0.53512200  0.86425974    -0.80050
O1102       O  0.26709255  0.57119224  0.86297899    -0.99140
Zr1103     Zr  0.19915271  0.96279290  0.95238738     2.21500
Zr1104     Zr  0.28939472  0.54721584  0.03609578     2.11130
O1105       O  0.29133729  0.52659692  0.97533242    -2.47820
O1106       O  0.24699722  0.98551300  0.93600964    -0.79850
O1107       O  0.26778230  0.99677813  0.05930612    -0.72040
O1108       O  0.22167975  0.51342174  0.92785217    -2.33000
O1109       O  0.22220356  0.95400554  0.01601265    -2.29210
O1110       O  0.26708021  0.55631210  0.97204768    -0.73800
H1111       H  0.23941065  0.53245076  0.07545533     0.78200
H1112       H  0.21268823  0.51641550  0.90179624     0.79280
H1113       H  0.31023855  0.53516555  0.96741831     0.81510
H1114       H  0.21282780  0.93348809  0.02481416     0.79120
H1115       H  0.20760573  0.56041599  0.91163684     0.42150
H1116       H  0.27592135  0.58793727  0.87993847     0.41120
H1117       H  0.30060203  0.51952578  0.87910183     0.40800
H1118       H  0.31728892  0.49447504  0.94819452     0.38730
H1119       H  0.27617942  0.93894806  0.06017744     0.41870
H1120       H  0.20570912  0.92013764  0.11427169     0.36650
H1121       H  0.18716569  0.97981744  0.12945934     0.42770
H1122       H  0.18375849  0.52752196  0.05218755     0.39180
H1123       H  0.31058276  0.96757253  0.98217508     0.44100
H1124       H  0.22864056  0.94216953  0.14513240     0.42820
H1125       H  0.17957983  0.54303832  0.00805488     0.42960
H1126       H  0.28053679  0.57764487  0.83895611     0.43320
O1127       O  0.24921246  0.57203746  0.53613179    -0.75550
O1128       O  0.20928281  0.53379500  0.57077503    -0.54460
C1129       C  0.22887714  0.56152590  0.56218592     0.78180
O1130       O  0.23102346  0.51032419  0.34622975    -0.60150
O1131       O  0.27184958  0.51601106  0.36101370    -0.53180
C1132       C  0.25425614  0.51607565  0.33388139     0.70190
O1133       O  0.16558883  0.99544527  0.44247477    -0.74710
O1134       O  0.16351922  0.98799095  0.51849054    -0.55280
C1135       C  0.15431629  0.99090137  0.48034579     0.76190
O1136       O  0.30096467  0.57643086  0.43594692    -0.59860
O1137       O  0.31658214  0.54954708  0.44421088    -0.52980
C1138       C  0.32064199  0.57407918  0.44380989     0.72780
Zr1139     Zr  0.26593580  0.55495448  0.49154178     2.54710
O1140       O  0.26632124  0.59465537  0.44943252    -0.80420
O1141       O  0.30549851  0.58872963  0.53496261    -0.93840
Zr1142     Zr  0.20595772  0.99960490  0.41660626     2.64680
O1143       O  0.20400550  0.53674238  0.37006285    -0.98790
O1144       O  0.16887241  0.96243649  0.37386696    -0.80860
O1145       O  0.21774569  0.52393643  0.48117956    -0.84210
O1146       O  0.25391672  0.53163516  0.42664164    -2.18920
O1147       O  0.30595986  0.99736668  0.54197961    -0.67600
O1148       O  0.30692041  0.50032011  0.46575767    -0.52170
C1149       C  0.31662781  0.99998677  0.50469513     0.71170
O1150       O  0.17526254  0.91812368  0.55541895    -0.60510
O1151       O  0.15533929  0.94021071  0.55269106    -0.52490
C1152       C  0.15362154  0.91725884  0.54914393     0.72970
O1153       O  0.22305553  0.92093902  0.44496916    -0.71910
O1154       O  0.26383318  0.95982715  0.41350220    -0.50580
C1155       C  0.24442213  0.93223772  0.42077533     0.74350
O1156       O  0.24412944  0.98632428  0.63828196    -0.67240
O1157       O  0.20241675  0.97938527  0.62656773    -0.54430
C1158       C  0.22188737  0.98187715  0.65193307     0.72730
Zr1159     Zr  0.26461917  0.99061738  0.56765511     2.77540
O1160       O  0.25876029  0.94786808  0.60972614    -0.97980
O1161       O  0.30210672  0.52116509  0.61699599    -0.78810
Zr1162     Zr  0.20492254  0.93575799  0.49209270     2.70070
O1163       O  0.20490508  0.89514192  0.52869191    -0.80050
O1164       O  0.16439096  0.90192567  0.45049755    -0.99140
Zr1165     Zr  0.20079218  0.98892879  0.54651982     2.21500
Zr1166     Zr  0.27068733  0.00245845  0.43966852     2.11130
O1167       O  0.25285859  0.96646453  0.50337115    -2.47820
O1168       O  0.21643024  0.95879373  0.55775683    -0.79850
O1169       O  0.28281431  0.52642477  0.50446569    -0.72040
O1170       O  0.18862653  0.96486593  0.48058885    -2.33000
O1171       O  0.24917574  0.52066204  0.55683785    -2.29210
O1172       O  0.22240813  0.97045456  0.42728245    -0.73800
H1173       H  0.26121195  0.54539625  0.39989333     0.78200
H1174       H  0.16899614  0.95264450  0.47556560     0.79280
H1175       H  0.26030465  0.95536789  0.50569284     0.81510
H1176       H  0.25346981  0.53044051  0.58278178     0.79120
H1177       H  0.15310030  0.95008621  0.39502167     0.42150
H1178       H  0.16869104  0.91098452  0.41897569     0.41120
H1179       H  0.20983346  0.89896308  0.56014339     0.40800
H1180       H  0.25947270  0.93771014  0.58700369     0.38730
H1181       H  0.30129537  0.53777133  0.61727360     0.41870
H1182       H  0.29895212  0.58239779  0.56637597     0.36650
H1183       H  0.24967277  0.58510349  0.43026866     0.42770
H1184       H  0.22344319  0.55223935  0.36095978     0.39180
H1185       H  0.27621435  0.95550042  0.62670448     0.44100
H1186       H  0.30779519  0.60730432  0.52687317     0.42820
H1187       H  0.19470155  0.52816161  0.34231660     0.42960
H1188       H  0.16496479  0.88506271  0.45162390     0.43320
O1189       O  0.25020707  0.68837239  0.08900146    -0.75550
O1190       O  0.25436228  0.68252189  0.01757174    -0.54460
C1191       C  0.25460482  0.67683951  0.06047375     0.78180
O1192       O  0.16367127  0.73533342  0.01530569    -0.60150
O1193       O  0.19563902  0.78342430  0.01828472    -0.53180
C1194       C  0.17032025  0.76088041  0.01271209     0.70190
O1195       O  0.17869908  0.68580658  0.94444060    -0.74710
O1196       O  0.20177013  0.66790619  0.97078901    -0.55280
C1197       C  0.17846328  0.66442861  0.96141678     0.76190
O1198       O  0.23494266  0.74696267  0.14511824    -0.59860
O1199       O  0.23655523  0.78714497  0.11706426    -0.52980
C1200       C  0.23383502  0.76815764  0.14963991     0.72780
Zr1201     Zr  0.24171507  0.72588761  0.08745993     2.54710
O1202       O  0.20247991  0.68348117  0.12993478    -0.80420
O1203       O  0.27516789  0.73498471  0.14689119    -0.93840
Zr1204     Zr  0.18918645  0.71933039  0.99341450     2.64680
O1205       O  0.15436054  0.67711215  0.04276165    -0.98790
O1206       O  0.15333920  0.71442042  0.94211608    -0.80860
O1207       O  0.21628005  0.70297159  0.02415165    -0.84210
O1208       O  0.21315878  0.74095797  0.05825894    -2.18920
O1209       O  0.30953305  0.81938012  0.05959744    -0.67600
O1210       O  0.28882923  0.84010484  0.03744776    -0.52170
C1211       C  0.31143118  0.84190781  0.04290475     0.71170
O1212       O  0.25410688  0.76073902  0.85814986    -0.60510
O1213       O  0.25086100  0.71941881  0.88537418    -0.52490
C1214       C  0.25330226  0.73839476  0.85302639     0.72970
O1215       O  0.24276719  0.82301869  0.91903288    -0.71910
O1216       O  0.24133151  0.82924259  0.99148564    -0.50580
C1217       C  0.24098703  0.83583732  0.94912759     0.74350
O1218       O  0.32529596  0.76744632  0.99671027    -0.67240
O1219       O  0.29601487  0.72507371  0.96779462    -0.54430
C1220       C  0.32037742  0.74522691  0.98229736     0.72730
Zr1221     Zr  0.30246557  0.78901612  0.00675704     2.77540
O1222       O  0.33287908  0.82412310  0.94556997    -0.97980
O1223       O  0.34536444  0.80420562  0.04618832    -0.78810
Zr1224     Zr  0.24962950  0.78398940  0.91520948     2.70070
O1225       O  0.28874216  0.82565126  0.87147406    -0.80050
O1226       O  0.21614192  0.77710600  0.85701050    -0.99140
Zr1227     Zr  0.24895046  0.71601233  0.96735377     2.21500
Zr1228     Zr  0.24236240  0.79215128  0.03554153     2.11130
O1229       O  0.27515828  0.80551345  0.97804174    -2.47820
O1230       O  0.27728822  0.76724708  0.94322299    -0.79850
O1231       O  0.27099902  0.77657742  0.06442084    -0.72040
O1232       O  0.22179347  0.73342616  0.93683276    -2.33000
O1233       O  0.27382735  0.73927639  0.03124578    -2.29210
O1234       O  0.21741071  0.76963774  0.97150390    -0.73800
H1235       H  0.19978506  0.73600998  0.08030844     0.78200
H1236       H  0.21341794  0.72627584  0.90877667     0.79280
H1237       H  0.28645137  0.82587589  0.96735210     0.81510
H1238       H  0.28549586  0.73362356  0.04407021     0.79120
H1239       H  0.16349121  0.73107760  0.91846264     0.42150
H1240       H  0.20274241  0.77836623  0.87143488     0.41120
H1241       H  0.29885319  0.81846423  0.86222689     0.40800
H1242       H  0.35131292  0.83641126  0.95922135     0.38730
H1243       H  0.33936814  0.79161806  0.07527173     0.41870
H1244       H  0.29070156  0.73743796  0.13220295     0.36650
H1245       H  0.19751755  0.66696758  0.11492953     0.42770
H1246       H  0.14868776  0.68473191  0.06295482     0.39180
H1247       H  0.32689609  0.83678935  0.93607615     0.44100
H1248       H  0.26639130  0.71626554  0.16642838     0.42820
H1249       H  0.16473420  0.67112504  0.06222272     0.42960
H1250       H  0.22645604  0.79501360  0.83557408     0.43320
O1251       O  0.17728523  0.67932430  0.43139064    -0.75550
O1252       O  0.16414764  0.70967915  0.42312721    -0.54460
C1253       C  0.16008111  0.68537949  0.42001338     0.78180
O1254       O  0.22876323  0.73230092  0.64670376    -0.60150
O1255       O  0.26918255  0.73764721  0.63728298    -0.53180
C1256       C  0.25063542  0.73434611  0.66194132     0.70190
O1257       O  0.16929322  0.73862072  0.55798695    -0.74710
O1258       O  0.16805420  0.75014992  0.48239204    -0.55280
C1259       C  0.15949079  0.74507669  0.52277671     0.76190
O1260       O  0.22532479  0.66545830  0.53275940    -0.59860
O1261       O  0.26317650  0.69334637  0.57509016    -0.52980
C1262       C  0.24346975  0.66849348  0.56178601     0.72780
Zr1263     Zr  0.21156466  0.69317030  0.48864042     2.54710
O1264       O  0.17067109  0.64780405  0.52199903    -0.80420
O1265       O  0.21994775  0.66927038  0.43979683    -0.93840
Zr1266     Zr  0.20719984  0.73466578  0.57463419     2.64680
O1267       O  0.16884350  0.68716977  0.60804106    -0.98790
O1268       O  0.20494933  0.76087117  0.62771080    -0.80860
O1269       O  0.19119607  0.71575256  0.50502006    -0.84210
O1270       O  0.22554845  0.70996429  0.55958713    -2.18920
O1271       O  0.31227118  0.76607443  0.44260731    -0.67600
O1272       O  0.31244953  0.75002335  0.51681808    -0.52170
C1273       C  0.32189770  0.75837581  0.47630093     0.71170
O1274       O  0.25496587  0.83317768  0.46424121    -0.60510
O1275       O  0.21671251  0.80422346  0.42341685    -0.52490
C1276       C  0.23660236  0.82935613  0.43492697     0.72970
O1277       O  0.28806081  0.80280194  0.58510842    -0.71910
O1278       O  0.31471792  0.78827384  0.58344553    -0.50580
C1279       C  0.31194397  0.80808374  0.58905864     0.74350
O1280       O  0.25329389  0.77248311  0.35460835    -0.67240
O1281       O  0.21096828  0.76281554  0.36442907    -0.54430
C1282       C  0.23090330  0.76930543  0.33952021     0.72730
Zr1283     Zr  0.27271225  0.76611645  0.42646873     2.77540
O1284       O  0.30975816  0.81386972  0.39160459    -0.97980
O1285       O  0.27466727  0.73933017  0.37412202    -0.78810
Zr1286     Zr  0.26962476  0.80729526  0.51275040     2.70070
O1287       O  0.31509848  0.84634670  0.48110257    -0.80050
O1288       O  0.26755713  0.83986080  0.55221091    -0.99140
Zr1289     Zr  0.20535405  0.75508748  0.44628757     2.21500
Zr1290     Zr  0.27478601  0.74355615  0.55557881     2.11130
O1291       O  0.28911835  0.78374890  0.49690205    -2.47820
O1292       O  0.25407532  0.78988758  0.44270506    -0.79850
O1293       O  0.25992224  0.72679330  0.48383087    -0.72040
O1294       O  0.22111809  0.77393409  0.51655310    -2.33000
O1295       O  0.22468056  0.73126154  0.43029032    -2.29210
O1296       O  0.25540881  0.76798517  0.56953365    -0.73800
H1297       H  0.21992858  0.69425658  0.58331197     0.78200
H1298       H  0.21400485  0.78450043  0.52198781     0.79280
H1299       H  0.30906729  0.79720845  0.49606746     0.81510
H1300       H  0.21853262  0.72385960  0.40184720     0.79120
H1301       H  0.22146836  0.78106727  0.62071729     0.42150
H1302       H  0.24848371  0.83434743  0.54753776     0.41120
H1303       H  0.31110373  0.85411778  0.45244236     0.40800
H1304       H  0.32449686  0.82182604  0.41448095     0.38730
H1305       H  0.27138509  0.72190145  0.39276186     0.41870
H1306       H  0.21983475  0.67815698  0.40913006     0.36650
H1307       H  0.17183682  0.64982728  0.55417452     0.42770
H1308       H  0.17771218  0.67878212  0.62588228     0.39180
H1309       H  0.31729457  0.80999194  0.36821420     0.44100
H1310       H  0.20274968  0.64928933  0.44174169     0.42820
H1311       H  0.16109430  0.69133743  0.63063341     0.42960
H1312       H  0.26801731  0.83347378  0.58437679     0.43320
C1313       C  0.27352887  0.76024042  0.77667830    -0.09420
C1314       C  0.25530078  0.73511913  0.80569651     0.06780
C1315       C  0.23735979  0.70881560  0.78721037    -0.03190
C1316       C  0.23710215  0.70851894  0.74053572    -0.07630
C1317       C  0.25476750  0.73402606  0.71147026     0.05890
C1318       C  0.27331366  0.75991554  0.73045490    -0.02660
Br1319     Br  0.29676015  0.79640466  0.69495124    -0.02350
H1320       H  0.28735124  0.78071886  0.78988818     0.09810
H1321       H  0.22226268  0.68847624  0.72670523     0.07820
Br1322     Br  0.21084337  0.67335244  0.82327277    -0.02780
C1323       C  0.24827224  0.79598549  0.21550288    -0.09420
C1324       C  0.22936670  0.77036088  0.19631531     0.06780
C1325       C  0.20826237  0.74591393  0.22401985    -0.03190
C1326       C  0.20755654  0.74676480  0.27007967    -0.07630
C1327       C  0.22783627  0.77162838  0.28984796     0.05890
C1328       C  0.24776753  0.79665501  0.26178587    -0.02660
Br1329     Br  0.27516151  0.83200475  0.28580644    -0.02350
H1330       H  0.26448984  0.81507239  0.19498982     0.09810
H1331       H  0.19205937  0.72731839  0.29097147     0.07820
Br1332     Br  0.18008511  0.71050950  0.20068110    -0.02780
C1333       C  0.26599441  0.88337253  0.41975078    -0.09420
C1334       C  0.23989590  0.85679691  0.41521625     0.06780
C1335       C  0.21789192  0.85807007  0.39811805    -0.03190
C1336       C  0.22120360  0.88459520  0.39303794    -0.07630
C1337       C  0.24618625  0.91027020  0.40456562     0.05890
C1338       C  0.26923670  0.90973457  0.41484705    -0.02660
Br1339     Br  0.30453722  0.94320951  0.42977930    -0.02350
H1340       H  0.28381266  0.88352880  0.43066659     0.09810
H1341       H  0.20324211  0.88457848  0.38424318     0.07820
Br1342     Br  0.18225369  0.82439028  0.38509888    -0.02780
C1343       C  0.25633788  0.61009504  0.58968218    -0.09420
C1344       C  0.22986119  0.58495038  0.58063076     0.06780
C1345       C  0.20765477  0.58724092  0.57638885    -0.03190
C1346       C  0.21249391  0.61425317  0.57631637    -0.07630
C1347       C  0.23953993  0.64019694  0.57869552     0.05890
C1348       C  0.26135940  0.63739822  0.58829511    -0.02660
Br1349     Br  0.29881338  0.67032593  0.59423512    -0.02350
H1350       H  0.27394374  0.60911040  0.59352430     0.09810
H1351       H  0.19496743  0.61528441  0.57028046     0.07820
Br1352     Br  0.17104443  0.55552879  0.56327673    -0.02780
C1353       C  0.20134585  0.95656075  0.72791401    -0.09420
C1354       C  0.21964102  0.98215575  0.69980754     0.06780
C1355       C  0.23498549  0.50860719  0.71727198    -0.03190
C1356       C  0.23317713  0.50911024  0.76260965    -0.07630
C1357       C  0.21630153  0.98345610  0.79212900     0.05890
C1358       C  0.19950411  0.95700008  0.77381704    -0.02660
Br1359     Br  0.17423467  0.92088008  0.80911534    -0.02350
H1360       H  0.18876253  0.93616390  0.71424764     0.09810
H1361       H  0.24566220  0.52997180  0.77488136     0.07820
Br1362     Br  0.25858944  0.54485931  0.68021674    -0.02780
C1363       C  0.28710362  0.52813830  0.22163790    -0.09420
C1364       C  0.27025510  0.53234880  0.19194275     0.06780
C1365       C  0.25032076  0.53427123  0.20896798    -0.03190
C1366       C  0.24612768  0.52991467  0.25507027    -0.07630
C1367       C  0.26148761  0.52344669  0.28531429     0.05890
C1368       C  0.28304418  0.52367847  0.26792582    -0.02660
Br1369     Br  0.30659023  0.51566936  0.30358614    -0.02350
H1370       H  0.30212021  0.52612618  0.20871171     0.09810
H1371       H  0.23014009  0.53075453  0.26710342     0.07820
Br1372     Br  0.22716984  0.54124671  0.17017330    -0.02780
C1373       C  0.25043531  0.90562441  0.95640434    -0.09420
C1374       C  0.22704331  0.90200052  0.93501969     0.06780
C1375       C  0.20913786  0.87695490  0.91368117    -0.03190
C1376       C  0.21518130  0.85655715  0.91401049    -0.07630
C1377       C  0.23860008  0.86034588  0.93668779     0.05890
C1378       C  0.25626226  0.88556745  0.95765530    -0.02660
Br1379     Br  0.28835879  0.89386736  0.99130177    -0.02350
H1380       H  0.26409908  0.92397157  0.97411168     0.09810
H1381       H  0.20093900  0.83719678  0.89831481     0.07820
Br1382     Br  0.17628949  0.86960890  0.88483995    -0.02780
C1383       C  0.28684133  0.66206956  0.07318823    -0.09420
C1384       C  0.26009050  0.65506304  0.07699905     0.06780
C1385       C  0.23789519  0.62590963  0.08697981    -0.03190
C1386       C  0.24166876  0.60438040  0.08550296    -0.07630
C1387       C  0.26744662  0.61123382  0.07373442     0.05890
C1388       C  0.29070141  0.64021871  0.07257906    -0.02660
Br1389     Br  0.32736657  0.65071329  0.06765820    -0.02350
H1390       H  0.30446637  0.68456034  0.06766767     0.09810
H1391       H  0.22360411  0.58206613  0.08935369     0.07820
Br1392     Br  0.20131601  0.61437468  0.09714065    -0.02780
C1393       C  0.37175506  0.62348322  0.52487496    -0.09420
C1394       C  0.37944128  0.65054815  0.50307326     0.06780
C1395       C  0.37096163  0.65180617  0.45806531    -0.03190
C1396       C  0.35424961  0.62663150  0.43755667    -0.07630
C1397       C  0.34622748  0.59966730  0.45979106     0.05890
C1398       C  0.35611903  0.59857754  0.50352540    -0.02660
Br1399     Br  0.34800485  0.56394435  0.53776908    -0.02350
H1400       H  0.37892779  0.62185179  0.55861049     0.09810
H1401       H  0.34678353  0.62797155  0.40394066     0.07820
Br1402     Br  0.38354038  0.68644570  0.41928888    -0.02780
C1403       C  0.10825820  0.84531743  0.50147240    -0.09420
C1404       C  0.09716260  0.85208564  0.46289935     0.06780
C1405       C  0.10260509  0.87988894  0.45643645    -0.03190
C1406       C  0.11804473  0.89949090  0.48798072    -0.07630
C1407       C  0.13012765  0.89308636  0.52536190     0.05890
C1408       C  0.12460241  0.86531596  0.53199964    -0.02660
Br1409     Br  0.13842370  0.85306728  0.58293455    -0.02350
H1410       H  0.10349647  0.82395795  0.50915468     0.09810
H1411       H  0.12199102  0.92057055  0.48152423     0.07820
Br1412     Br  0.09073157  0.89318043  0.40394257    -0.02780
C1413       C  0.38464239  0.77160374  0.42612643    -0.09420
C1414       C  0.38197431  0.74645280  0.44570727     0.06780
C1415       C  0.35840944  0.72497244  0.47250804    -0.03190
C1416       C  0.33963256  0.72994323  0.48216714    -0.07630
C1417       C  0.34354103  0.75590454  0.46598367     0.05890
C1418       C  0.36553058  0.77651910  0.43615680    -0.02660
Br1419     Br  0.37193467  0.81272271  0.41215894    -0.02350
H1420       H  0.40293076  0.78860990  0.40664945     0.09810
H1421       H  0.32185085  0.71339099  0.50307457     0.07820
Br1422     Br  0.35090566  0.68927017  0.50178461    -0.02780
C1423       C  0.09711551  0.73859209  0.56128151    -0.09420
C1424       C  0.09747841  0.75884045  0.52843883     0.06780
C1425       C  0.12013973  0.77659090  0.49865958    -0.03190
C1426       C  0.14034857  0.77208612  0.49937365    -0.07630
C1427       C  0.13857906  0.74987322  0.52863266     0.05890
C1428       C  0.11759542  0.73394240  0.56166726    -0.02660
Br1429     Br  0.11424610  0.70408616  0.60516689    -0.02350
H1430       H  0.07983517  0.72487469  0.58438039     0.09810
H1431       H  0.15729789  0.78565123  0.47564361     0.07820
Br1432     Br  0.12470014  0.80635565  0.45367549    -0.02780
C1433       C  0.48544722  0.77116683  0.74916250    -0.09420
C1434       C  0.48309908  0.74763514  0.77631636     0.06780
C1435       C  0.47087743  0.72159645  0.75761113    -0.03190
C1436       C  0.46298447  0.72025942  0.71267328    -0.07630
C1437       C  0.46720682  0.74438934  0.68522456     0.05890
C1438       C  0.47794284  0.76980164  0.70397113    -0.02660
Br1439     Br  0.98570226  0.80414448  0.66772053    -0.02350
H1440       H  0.99439531  0.79129871  0.76250428     0.09810
H1441       H  0.45537726  0.70082956  0.69809455     0.07820
Br1442     Br  0.46468552  0.68699190  0.78977307    -0.02780
C1443       C  0.00128893  0.72781488  0.22146282    -0.09420
C1444       C  0.99896787  0.74718374  0.19039046     0.06780
C1445       C  0.00405880  0.77191752  0.20602525    -0.03190
C1446       C  0.00908946  0.77537170  0.25140258    -0.07630
C1447       C  0.00979147  0.75519957  0.28257378     0.05890
C1448       C  0.00655230  0.73160600  0.26705348    -0.02660
Br1449     Br  0.00669198  0.70265471  0.30733874    -0.02350
H1450       H  0.99811152  0.70906483  0.21062794     0.09810
H1451       H  0.01162500  0.79367689  0.26283356     0.07820
Br1452     Br  0.00503691  0.80266557  0.16866713    -0.02780
C1453       C  0.38039129  0.60892993  0.93713430    -0.09420
C1454       C  0.36047709  0.61450479  0.93009798     0.06780
C1455       C  0.36636615  0.63907076  0.90177349    -0.03190
C1456       C  0.39303405  0.65926359  0.88465239    -0.07630
C1457       C  0.41416385  0.65562574  0.89637731     0.05890
C1458       C  0.40730292  0.62933019  0.92077334    -0.02660
Br1459     Br  0.43350956  0.62044675  0.93565164    -0.02350
H1460       H  0.37493543  0.58863174  0.95567193     0.09810
H1461       H  0.39779202  0.67896611  0.86474451     0.07820
Br1462     Br  0.33919197  0.64673140  0.88821580    -0.02780
C1463       C  0.08315623  0.86904331  0.09142579    -0.09420
C1464       C  0.07898806  0.84311757  0.08648437     0.06780
C1465       C  0.10249031  0.84357265  0.08285759    -0.03190
C1466       C  0.12711764  0.86916601  0.06676542    -0.07630
C1467       C  0.13006578  0.89512970  0.06379682     0.05890
C1468       C  0.10962283  0.89502935  0.08412027    -0.02660
Br1469     Br  0.11761892  0.92733174  0.10944169    -0.02350
H1470       H  0.06591315  0.86920724  0.09905662     0.09810
H1471       H  0.14427731  0.86896910  0.05863055     0.07820
Br1472     Br  0.10187338  0.81024247  0.10145477    -0.02780
C1473       C  0.37167314  0.76976469  0.99475095    -0.09420
C1474       C  0.34532816  0.74418308  0.98642638     0.06780
C1475       C  0.34405983  0.71899325  0.98750754    -0.03190
C1476       C  0.36731635  0.71909939  0.00152614    -0.07630
C1477       C  0.39322458  0.74428627  0.01296217     0.05890
C1478       C  0.39520892  0.77015118  0.00675631    -0.02660
Br1479     Br  0.42962812  0.80727980  0.00987045    -0.02350
H1480       H  0.37427719  0.79015860  0.99167699     0.09810
H1481       H  0.36517638  0.69915048  0.00172922     0.07820
Br1482     Br  0.31208079  0.68446291  0.96715345    -0.02780
C1483       C  0.09626980  0.73848250  0.99368048    -0.09420
C1484       C  0.09846446  0.75482013  0.95254128     0.06780
C1485       C  0.12520694  0.77512221  0.93382272    -0.03190
C1486       C  0.14885890  0.77902231  0.95603540    -0.07630
C1487       C  0.14677701  0.76292077  0.99751436     0.05890
C1488       C  0.11977735  0.74216546  0.01577594    -0.02660
Br1489     Br  0.11379728  0.71813948  0.07140581    -0.02350
H1490       H  0.07619492  0.72340474  0.00964444     0.09810
H1491       H  0.16874168  0.79332960  0.93942657     0.07820
Br1492     Br  0.12965434  0.79577529  0.87556441    -0.02780
C1493       C  0.38196184  0.87601712  0.61833569    -0.09420
C1494       C  0.38050203  0.89773828  0.59256386     0.06780
C1495       C  0.35551553  0.88920768  0.57076432    -0.03190
C1496       C  0.33311852  0.86023611  0.57500310    -0.07630
C1497       C  0.33554545  0.83829010  0.59540519     0.05890
C1498       C  0.36015358  0.84642624  0.61849542    -0.02660
Br1499     Br  0.36554579  0.81840485  0.64876683    -0.02350
H1500       H  0.40143869  0.88191067  0.63368773     0.09810
H1501       H  0.31460409  0.85473601  0.55713891     0.07820
Br1502     Br  0.35283936  0.91366107  0.52354455    -0.02780
C1503       C  0.12709110  0.64861094  0.37032190    -0.09420
C1504       C  0.13277729  0.65969060  0.41138620     0.06780
C1505       C  0.11925414  0.64040743  0.45005493    -0.03190
C1506       C  0.10393046  0.61085039  0.44867345    -0.07630
C1507       C  0.09574828  0.59957099  0.40787534     0.05890
C1508       C  0.10709675  0.61880496  0.36809003    -0.02660
Br1509     Br  0.09587640  0.60493320  0.31102377    -0.02350
H1510       H  0.13825177  0.66298284  0.34042675     0.09810
H1511       H  0.09549731  0.59637657  0.47938829     0.07820
Br1512     Br  0.12236387  0.65392219  0.50610183    -0.02780
C1513       C  0.36151915  0.52326071  0.47130537    -0.09420
C1514       C  0.34203124  0.00292406  0.50458820     0.06780
C1515       C  0.34411395  0.98173212  0.52872956    -0.03190
C1516       C  0.36549222  0.98083899  0.51877719    -0.07630
C1517       C  0.38404243  0.49981946  0.48370309     0.05890
C1518       C  0.38235635  0.52153141  0.46005750    -0.02660
Br1519     Br  0.40833503  0.54993045  0.41441505    -0.02350
H1520       H  0.35962967  0.53960201  0.45250858     0.09810
H1521       H  0.36805320  0.96565128  0.53962252     0.07820
Br1522     Br  0.31720111  0.95181239  0.57207664    -0.02780
C1523       C  0.12226659  0.49059056  0.52605524    -0.09420
C1524       C  0.12929741  0.98941378  0.48332312     0.06780
C1525       C  0.11226105  0.98676577  0.44676177    -0.03190
C1526       C  0.09010321  0.98752457  0.45300354    -0.07630
C1527       C  0.08493542  0.49155027  0.49484101     0.05890
C1528       C  0.10062281  0.49198551  0.53208530    -0.02660
Br1529     Br  0.09546336  0.49636692  0.59139331    -0.02350
H1530       H  0.13427849  0.49154539  0.55557103     0.09810
H1531       H  0.07714542  0.98557950  0.42433832     0.07820
Br1532     Br  0.11728940  0.98158907  0.38815129    -0.02780
C1533       C  0.46363583  0.84761595  0.46535997    -0.09420
C1534       C  0.47907667  0.84814750  0.50362773     0.06780
C1535       C  0.49967680  0.87553013  0.51772908    -0.03190
C1536       C  0.00458087  0.90113998  0.49390589    -0.07630
C1537       C  0.48896216  0.90057662  0.45598203     0.05890
C1538       C  0.46841473  0.87329052  0.44180563    -0.02660
Br1539     Br  0.44730593  0.87029677  0.38870719    -0.02350
H1540       H  0.44861525  0.82728279  0.45241389     0.09810
H1541       H  0.01968735  0.92149233  0.50674617     0.07820
Br1542     Br  0.02095284  0.87922095  0.57101445    -0.02780
C1543       C  0.47683909  0.60309371  0.46922747    -0.09420
C1544       C  0.48410048  0.59892027  0.51368133     0.06780
C1545       C  0.49965630  0.62344838  0.53696064    -0.03190
C1546       C  0.50729034  0.65092403  0.51626495    -0.07630
C1547       C  0.49989966  0.65502588  0.47174065     0.05890
C1548       C  0.98443931  0.63045413  0.44849939    -0.02660
Br1549     Br  0.97409053  0.63348031  0.38724388    -0.02350
H1550       H  0.96660975  0.58528255  0.44947198     0.09810
H1551       H  0.51793253  0.66886471  0.53583541     0.07820
Br1552     Br  0.51022904  0.61998888  0.59792756    -0.02780
C1553       C  0.00191251  0.51746799  0.75929827    -0.09420
C1554       C  0.48168042  0.99219983  0.78590776     0.06780
C1555       C  0.45962325  0.96831919  0.76564734    -0.03190
C1556       C  0.45878201  0.96987424  0.71907938    -0.07630
C1557       C  0.47961140  0.99495440  0.69302131     0.05890
C1558       C  0.00097214  0.51898158  0.71311822    -0.02660
Br1559     Br  0.02913376  0.55441618  0.67878656    -0.02350
H1560       H  0.01875233  0.53607518  0.77455039     0.09810
H1561       H  0.44216925  0.95144395  0.70322561     0.07820
Br1562     Br  0.42966961  0.93399298  0.79947204    -0.02780
C1563       C  0.47690786  0.97873614  0.22031704    -0.09420
C1564       C  0.49587714  0.50496305  0.19403727     0.06780
C1565       C  0.01507374  0.53012324  0.21437750    -0.03190
C1566       C  0.01394489  0.52882618  0.26043743    -0.07630
C1567       C  0.99417880  0.50280766  0.28584838     0.05890
C1568       C  0.47611029  0.97750725  0.26616715    -0.02660
Br1569     Br  0.45048898  0.94088684  0.30081419    -0.02350
H1570       H  0.46235954  0.95915873  0.20512697     0.09810
H1571       H  0.02838099  0.54807012  0.27647390     0.07820
Br1572     Br  0.04403868  0.56610933  0.18198661    -0.02780
C1573       C  0.38607477  0.88472471  0.00236709    -0.09420
C1574       C  0.38596057  0.89945688  0.96070493     0.06780
C1575       C  0.36123417  0.89679037  0.94824699    -0.03190
C1576       C  0.33771302  0.87983152  0.97644442    -0.07630
C1577       C  0.33810154  0.86580196  0.01862478     0.05890
C1578       C  0.36334165  0.86975996  0.03197313    -0.02660
Br1579     Br  0.36895662  0.85774109  0.09224862    -0.02350
H1580       H  0.40438410  0.88600905  0.01349258     0.09810
H1581       H  0.31863263  0.87626408  0.96378760     0.07820
Br1582     Br  0.35764360  0.91381586  0.89091149    -0.02780
C1583       C  0.14901754  0.62170012  0.01896498    -0.09420
C1584       C  0.15077715  0.63847955  0.97882640     0.06780
C1585       C  0.12607108  0.63512424  0.96240599    -0.03190
C1586       C  0.10144205  0.61734182  0.98734423    -0.07630
C1587       C  0.09971952  0.60079780  0.02766144     0.05890
C1588       C  0.12390674  0.60280213  0.04289899    -0.02660
Br1589     Br  0.12399492  0.58029906  0.09663419    -0.02350
H1590       H  0.16748224  0.62414640  0.03274482     0.09810
H1591       H  0.08292889  0.61473936  0.97321101     0.07820
Br1592     Br  0.12370432  0.65287761  0.90461033    -0.02780
C1593       C  0.36053643  0.00329020  0.07003550    -0.09420
C1594       C  0.36239824  0.52900327  0.05822452     0.06780
C1595       C  0.38984783  0.55486908  0.05189898    -0.03190
C1596       C  0.41333469  0.55396058  0.05047669    -0.07630
C1597       C  0.41062163  0.52750306  0.05824982     0.05890
C1598       C  0.38370721  0.00245676  0.07116757    -0.02660
Br1599     Br  0.37680925  0.96544897  0.09022117    -0.02350
H1600       H  0.34038107  0.98301592  0.07744815     0.09810
H1601       H  0.43347130  0.57389336  0.04159388     0.07820
Br1602     Br  0.39632592  0.59179489  0.04568080    -0.02780
C1603       C  0.11010085  0.97427283  0.89823601    -0.09420
C1604       C  0.12312097  0.97444838  0.94001899     0.06780
C1605       C  0.10918179  0.97157770  0.97804941    -0.03190
C1606       C  0.08322257  0.96685724  0.97511480    -0.07630
C1607       C  0.07106939  0.96893991  0.93409347     0.05890
C1608       C  0.08508649  0.97272372  0.89506581    -0.02660
Br1609     Br  0.07225086  0.97859137  0.83716601    -0.02350
H1610       H  0.12045046  0.97766681  0.86781280     0.09810
H1611       H  0.07402389  0.46517268  0.00575359     0.07820
Br1612     Br  0.12681498  0.47958463  0.03480503    -0.02780
C1613       C  0.49744334  0.85831237  0.03430146    -0.09420
C1614       C  0.50542696  0.85813957  0.99168683     0.06780
C1615       C  0.00973552  0.87916964  0.95639921    -0.03190
C1616       C  0.00207120  0.89685112  0.96243452    -0.07630
C1617       C  0.99186093  0.89518626  0.00387472     0.05890
C1618       C  0.49032761  0.87638575  0.04041540    -0.02660
Br1619     Br  0.47435559  0.87092296  0.09680870    -0.02350
H1620       H  0.49429607  0.84265157  0.06256956     0.09810
H1621       H  0.00329509  0.91125694  0.93389309     0.07820
Br1622     Br  0.02617294  0.88523800  0.90014102    -0.02780
C1623       C  0.52968722  0.63883316  0.92892927    -0.09420
C1624       C  0.53815077  0.62874211  0.96658621     0.06780
C1625       C  0.04649461  0.64300404  0.00503074    -0.03190
C1626       C  0.03848509  0.66058505  0.00993824    -0.07630
C1627       C  0.52373153  0.66521383  0.97579685     0.05890
C1628       C  0.52213003  0.65690234  0.93306569    -0.02660
Br1629     Br  0.50784733  0.66647958  0.87933907    -0.02350
H1630       H  0.52479925  0.62926494  0.89820690     0.09810
H1631       H  0.04210320  0.66882805  0.04158353     0.07820
Br1632     Br  0.06484030  0.63579907  0.05445432    -0.02780
O1633       O  0.56851111  0.05187055  0.05163602    -0.75550
O1634       O  0.55039148  0.07654741  0.04190423    -0.54460
C1635       C  0.57163245  0.07565164  0.04426600     0.78180
O1636       O  0.49111491  0.01592266  0.84778100    -0.60150
O1637       O  0.47994858  0.47016900  0.85927453    -0.53180
C1638       C  0.48403377  0.49243310  0.83421366     0.70190
O1639       O  0.52510857  0.08681320  0.93697315    -0.74710
O1640       O  0.01580180  0.08421680  0.00990438    -0.55280
C1641       C  0.02641864  0.09812473  0.97156331     0.76190
O1642       O  0.56267434  0.99979283  0.95664600    -0.59860
O1643       O  0.52490783  0.46165160  0.92604425    -0.52980
C1644       C  0.55129485  0.47731164  0.93688055     0.72780
Zr1645     Zr  0.54692542  0.02083824  0.99506002     2.54710
O1646       O  0.58661681  0.06221294  0.95208065    -0.80420
O1647       O  0.57267104  0.00578637  0.04200587    -0.93840
Zr1648     Zr  0.50136480  0.03829285  0.91518408     2.64680
O1649       O  0.53817677  0.07325619  0.86148684    -0.98790
O1650       O  0.97149014  0.05064049  0.87688681    -0.80860
O1651       O  0.52811117  0.04751053  0.98027706    -0.84210
O1652       O  0.52057578  0.01161047  0.92814783    -2.18920
O1653       O  0.98986500  0.42726520  0.04059869    -0.67600
O1654       O  0.47044731  0.41603261  0.97231351    -0.52170
C1655       C  0.48271992  0.41312609  0.00676852     0.71170
O1656       O  0.92179408  0.50309963  0.01981710    -0.60510
O1657       O  0.95846942  0.03862823  0.05608787    -0.52490
C1658       C  0.93225703  0.02355531  0.04416090     0.72970
O1659       O  0.91846898  0.44762372  0.92738772    -0.71910
O1660       O  0.93273524  0.41980241  0.93505588    -0.50580
C1661       C  0.91292375  0.42255840  0.93666202     0.74350
O1662       O  0.98840445  0.48144401  0.13285997    -0.67240
O1663       O  0.99996741  0.02736174  0.12055495    -0.54430
C1664       C  0.99493383  0.00483458  0.14599689     0.72730
Zr1665     Zr  0.98142148  0.46005210  0.06569505     2.77540
O1666       O  0.93720876  0.41755256  0.09588644    -0.97980
O1667       O  0.50032851  0.44416672  0.12734849    -0.78810
Zr1668     Zr  0.93514852  0.47737619  0.98673058     2.70070
O1669       O  0.89895945  0.43664763  0.03597357    -0.80050
O1670       O  0.89874847  0.47942523  0.94818181    -0.99140
Zr1671     Zr  0.99912615  0.03675703  0.04094634     2.21500
Zr1672     Zr  0.48276324  0.46155001  0.93909517     2.11130
O1673       O  0.95430808  0.45074197  0.00184519    -2.47820
O1674       O  0.96186189  0.48656392  0.05294439    -0.79850
O1675       O  0.51014129  0.47179471  0.00500986    -0.72040
O1676       O  0.97193423  0.02721402  0.97469056    -2.33000
O1677       O  0.51828172  0.00946495  0.05653812    -2.29210
O1678       O  0.96364781  0.48881299  0.92500289    -0.73800
H1679       H  0.53174548  0.01572601  0.90291268     0.78200
H1680       H  0.96527042  0.03907615  0.96910862     0.79280
H1681       H  0.94003348  0.43063724  0.00882805     0.81510
H1682       H  0.52851918  0.01318141  0.08416719     0.79120
H1683       H  0.97799887  0.06922230  0.88684864     0.42150
H1684       H  0.90199261  0.48125290  0.91591377     0.41120
H1685       H  0.90748401  0.43902191  0.06601600     0.40800
H1686       H  0.93754047  0.40105412  0.09199714     0.38730
H1687       H  0.52057882  0.45704621  0.12197511     0.41870
H1688       H  0.57655782  0.01404747  0.07035824     0.36650
H1689       H  0.57854117  0.06916846  0.92859055     0.42770
H1690       H  0.54534080  0.06298949  0.85254013     0.39180
H1691       H  0.93885068  0.41825674  0.12857201     0.44100
H1692       H  0.55883534  0.98475313  0.05054567     0.42820
H1693       H  0.52852670  0.07541017  0.83461341     0.42960
H1694       H  0.88150082  0.45976716  0.95531528     0.43320
O1695       O  0.96528248  0.42201666  0.43998477    -0.75550
O1696       O  0.51149625  0.45259727  0.43541062    -0.54460
C1697       C  0.48883176  0.42653251  0.44061982     0.78180
O1698       O  0.91759021  0.00231124  0.44264974    -0.60150
O1699       O  0.91734430  0.99723569  0.51907462    -0.53180
C1700       C  0.90790558  0.99991689  0.48086069     0.70190
O1701       O  0.97289128  0.00190272  0.34703180    -0.74710
O1702       O  0.51118334  0.00159116  0.35688197    -0.55280
C1703       C  0.49275752  0.00218081  0.33304959     0.76190
O1704       O  0.91806273  0.41644797  0.54968125    -0.59860
O1705       O  0.91436865  0.44976916  0.57328956    -0.52980
C1706       C  0.90634843  0.42348755  0.57191733     0.72780
Zr1707     Zr  0.95183432  0.43878825  0.49305378     2.54710
O1708       O  0.90856236  0.40751063  0.45433728    -0.80420
O1709       O  0.94831133  0.39717167  0.53504560    -0.93840
Zr1710     Zr  0.95467707  0.00146157  0.41631840     2.64680
O1711       O  0.91357122  0.46700707  0.37602881    -0.98790
O1712       O  0.95910733  0.04182342  0.36785008    -0.80860
O1713       O  0.96897851  0.47045663  0.42583754    -0.84210
O1714       O  0.93679783  0.46886693  0.48278583    -2.18920
O1715       O  0.99857425  0.49323757  0.63109686    -0.67600
O1716       O  0.96343559  0.49862066  0.62099514    -0.52170
C1717       C  0.98025351  0.49530530  0.64526073     0.71170
O1718       O  0.54988503  0.07747730  0.41657937    -0.60510
O1719       O  0.56215465  0.04759516  0.41365166    -0.52490
C1720       C  0.56760428  0.07303715  0.40993572     0.72970
O1721       O  0.00847159  0.07887361  0.52821905    -0.71910
O1722       O  0.96232629  0.04650463  0.53276035    -0.50580
C1723       C  0.98450254  0.07306799  0.52776028     0.74350
O1724       O  0.55205310  0.99121264  0.53407580    -0.67240
O1725       O  0.55830492  0.00477749  0.45902821    -0.54430
C1726       C  0.56394465  0.99634939  0.49675344     0.72730
Zr1727     Zr  0.51768138  0.99578870  0.56130052     2.77540
O1728       O  0.55944548  0.02956817  0.60095426    -0.97980
O1729       O  0.51326507  0.45611973  0.61170707    -0.78810
Zr1730     Zr  0.52167942  0.05892246  0.48190870     2.70070
O1731       O  0.56184075  0.08760403  0.52833863    -0.80050
O1732       O  0.53304046  0.10448453  0.44101702    -0.99140
Zr1733     Zr  0.51804498  0.99972119  0.43522418     2.21500
Zr1734     Zr  0.95561388  0.99828884  0.54220458     2.11130
O1735       O  0.00456221  0.02773329  0.55005752    -2.47820
O1736       O  0.53672129  0.02882153  0.49495885    -0.79850
O1737       O  0.96895939  0.46644340  0.55390672    -0.72040
O1738       O  0.50318050  0.03036713  0.42185288    -2.33000
O1739       O  0.50008509  0.46699953  0.50277808    -2.29210
O1740       O  0.97293539  0.03071878  0.47490996    -0.73800
H1741       H  0.91680001  0.45706267  0.48260086     0.78200
H1742       H  0.50915786  0.04149766  0.39267082     0.79280
H1743       H  0.01045030  0.03889704  0.57475316     0.81510
H1744       H  0.50567204  0.45425597  0.50954061     0.79120
H1745       H  0.97866184  0.05458362  0.35778799     0.42150
H1746       H  0.01525953  0.09988606  0.42817178     0.41120
H1747       H  0.56483769  0.07367247  0.54563646     0.40800
H1748       H  0.55478222  0.04065921  0.61475739     0.38730
H1749       H  0.99464500  0.43885124  0.60543100     0.41870
H1750       H  0.96762736  0.40399099  0.54181378     0.36650
H1751       H  0.91372181  0.41261829  0.42228274     0.42770
H1752       H  0.91771039  0.45417702  0.36689885     0.39180
H1753       H  0.56049352  0.01727853  0.62651963     0.44100
H1754       H  0.94176408  0.38322948  0.51332503     0.42820
H1755       H  0.91404452  0.47852337  0.34776491     0.42960
H1756       H  0.53784802  0.11735038  0.46376270     0.43320
O1757       O  0.57741635  0.27914673  0.93694888    -0.75550
O1758       O  0.55024598  0.23224237  0.92835245    -0.54460
C1759       C  0.57427077  0.25542483  0.93631888     0.78180
O1760       O  0.49697887  0.22542987  0.12663130    -0.60150
O1761       O  0.48296040  0.25478995  0.11848417    -0.53180
C1762       C  0.49228759  0.24185554  0.14234968     0.70190
O1763       O  0.01356866  0.18764244  0.02291438    -0.74710
O1764       O  0.99391346  0.17824246  0.95556757    -0.55280
C1765       C  0.00948589  0.17742694  0.98568856     0.76190
O1766       O  0.55927710  0.32234002  0.02151484    -0.59860
O1767       O  0.53008923  0.30652609  0.07855089    -0.52980
C1768       C  0.55461212  0.32245429  0.06177114     0.72780
Zr1769     Zr  0.55364690  0.28280027  0.99247969     2.54710
O1770       O  0.57326865  0.26361989  0.04678297    -0.80420
O1771       O  0.60175427  0.32524231  0.98832399    -0.93840
Zr1772     Zr  0.49226532  0.20736152  0.05392380     2.64680
O1773       O  0.51087830  0.18863111  0.11152997    -0.98790
O1774       O  0.95010974  0.16000403  0.07733993    -0.80860
O1775       O  0.52570916  0.23255272  0.99500162    -0.84210
O1776       O  0.52055149  0.25812320  0.05149033    -2.18920
O1777       O  0.00293663  0.32630617  0.94567632    -0.67600
O1778       O  0.50312592  0.31812167  0.02153697    -0.52170
C1779       C  0.00457059  0.33311344  0.98516656     0.71170
O1780       O  0.94669039  0.20550474  0.89790564    -0.60510
O1781       O  0.96383597  0.18168854  0.89332525    -0.52490
C1782       C  0.94271967  0.18194117  0.89290291     0.72970
O1783       O  0.91316186  0.21932337  0.01404287    -0.71910
O1784       O  0.94227498  0.26382067  0.03511886    -0.50580
C1785       C  0.91783772  0.24273795  0.02240760     0.74350
O1786       O  0.99057271  0.26850005  0.84222413    -0.67240
O1787       O  0.00079388  0.23605238  0.84413739    -0.54430
C1788       C  0.99224605  0.25086176  0.82382531     0.72730
Zr1789     Zr  0.00188301  0.28921633  0.91248259     2.77540
O1790       O  0.97584697  0.30272178  0.86304866    -0.97980
O1791       O  0.54389092  0.33092960  0.87476640    -0.78810
Zr1792     Zr  0.93958677  0.21218509  0.97053932     2.70070
O1793       O  0.89996478  0.20664517  0.93026524    -0.80050
O1794       O  0.90556339  0.16088164  0.99433479    -0.99140
Zr1795     Zr  0.00359303  0.22321120  0.92423295     2.21500
Zr1796     Zr  0.48855940  0.27079987  0.03942951     2.11130
O1797       O  0.96658400  0.26315990  0.96804879    -2.47820
O1798       O  0.97412292  0.23872582  0.91460596    -0.79850
O1799       O  0.52355143  0.29694590  0.98238209    -0.72040
O1800       O  0.96874595  0.19683956  0.98391786    -2.33000
O1801       O  0.53216724  0.27482430  0.92070385    -2.29210
O1802       O  0.96048671  0.21980266  0.04260729    -0.73800
H1803       H  0.53115556  0.26415580  0.07856534     0.78200
H1804       H  0.95713619  0.17614695  0.98362098     0.79280
H1805       H  0.95544008  0.27028288  0.96133050     0.81510
H1806       H  0.54478769  0.28410678  0.89558102     0.79120
H1807       H  0.95411059  0.14628724  0.07212623     0.42150
H1808       H  0.90964817  0.15813511  0.02633316     0.41120
H1809       H  0.90680567  0.22653069  0.91689484     0.40800
H1810       H  0.96167988  0.29977747  0.88246007     0.38730
H1811       H  0.55541334  0.34259963  0.89897310     0.41870
H1812       H  0.60454734  0.33428818  0.95681940     0.36650
H1813       H  0.55751341  0.24517279  0.06218269     0.42770
H1814       H  0.52743256  0.20591196  0.12318002     0.39180
H1815       H  0.98883767  0.32396927  0.85547363     0.44100
H1816       H  0.61292786  0.31754766  0.99163818     0.42820
H1817       H  0.49727404  0.17886060  0.13635883     0.42960
H1818       H  0.88779070  0.15852556  0.99459490     0.43320
O1819       O  0.55801689  0.25401953  0.55274281    -0.75550
O1820       O  0.56573372  0.25820620  0.47822746    -0.54460
C1821       C  0.57222957  0.25723469  0.51958192     0.78180
O1822       O  0.92150113  0.17419959  0.53989431    -0.60150
O1823       O  0.90671857  0.20108160  0.51838451    -0.53180
C1824       C  0.90264698  0.17628964  0.52358520     0.70190
O1825       O  0.97614824  0.17525850  0.44845978    -0.74710
O1826       O  0.52194960  0.20773341  0.45533095    -0.55280
C1827       C  0.50001176  0.18111076  0.45603945     0.76190
O1828       O  0.99156143  0.24757794  0.62722842    -0.59860
O1829       O  0.95222617  0.24511575  0.60908262    -0.52980
C1830       C  0.97011880  0.24575355  0.63718690     0.72780
Zr1831     Zr  0.51542453  0.24982926  0.56465405     2.54710
O1832       O  0.50797057  0.20840849  0.61435030    -0.80420
O1833       O  0.55045868  0.28414484  0.61324952    -0.93840
Zr1834     Zr  0.95816924  0.19289068  0.48957198     2.64680
O1835       O  0.95257909  0.15275295  0.54053107    -0.98790
O1836       O  0.92182292  0.15813072  0.44306679    -0.80860
O1837       O  0.50577025  0.22231659  0.50635288    -0.84210
O1838       O  0.96757342  0.21951807  0.54996950    -2.18920
O1839       O  0.00215955  0.32666437  0.52748428    -0.67600
O1840       O  0.95620796  0.29577658  0.52238028    -0.52170
C1841       C  0.97864855  0.32197913  0.52059731     0.71170
O1842       O  0.98822735  0.25770730  0.34036876    -0.60510
O1843       O  0.52482647  0.25536907  0.35944752    -0.52490
C1844       C  0.50791293  0.25631968  0.33070981     0.72970
O1845       O  0.92157553  0.25173160  0.41878473    -0.71910
O1846       O  0.91365770  0.24669332  0.49367409    -0.50580
C1847       C  0.90726802  0.24809655  0.45250448     0.74350
O1848       O  0.55471537  0.32848290  0.42341885    -0.67240
O1849       O  0.57335115  0.30493166  0.43591807    -0.54430
C1850       C  0.57536759  0.32843174  0.43605447     0.72730
Zr1851     Zr  0.52169302  0.31314908  0.47998285     2.77540
O1852       O  0.52580700  0.35428877  0.43489649    -0.97980
O1853       O  0.55945521  0.34622009  0.52654253    -0.78810
Zr1854     Zr  0.96474277  0.25650956  0.40347973     2.70070
O1855       O  0.97472765  0.30064216  0.35928379    -0.80050
O1856       O  0.93396060  0.22960694  0.34402183    -0.99140
Zr1857     Zr  0.52810604  0.25579900  0.44095279     2.21500
Zr1858     Zr  0.95151577  0.24918986  0.52731525     2.11130
O1859       O  0.97432640  0.28347265  0.46198869    -2.47820
O1860       O  0.51266984  0.28626470  0.42007562    -0.79850
O1861       O  0.99962646  0.27942534  0.54444898    -0.72040
O1862       O  0.97969306  0.22602720  0.42418929    -2.33000
O1863       O  0.53690983  0.28323025  0.50104763    -2.29210
O1864       O  0.94251714  0.22228617  0.46706118    -0.73800
H1865       H  0.95912822  0.20727767  0.57778689     0.78200
H1866       H  0.97615309  0.21518209  0.39997972     0.79280
H1867       H  0.96768632  0.29503468  0.45152101     0.81510
H1868       H  0.55603082  0.29504316  0.50966977     0.79120
H1869       H  0.92603398  0.16877565  0.41248544     0.42150
H1870       H  0.92699973  0.20924911  0.35381325     0.41120
H1871       H  0.99517630  0.31373233  0.35679486     0.40800
H1872       H  0.00662497  0.34722931  0.42626275     0.38730
H1873       H  0.55577007  0.33472517  0.55634859     0.41870
H1874       H  0.56682815  0.29816575  0.59376295     0.36650
H1875       H  0.51365148  0.19966689  0.59656272     0.42770
H1876       H  0.97132951  0.16043335  0.55259317     0.39180
H1877       H  0.53139744  0.36826795  0.45611527     0.44100
H1878       H  0.55587451  0.27303872  0.63348090     0.42820
H1879       H  0.94865251  0.13838106  0.52125749     0.42960
H1880       H  0.91774260  0.23005747  0.34492320     0.43320
O1881       O  0.67207588  0.43881861  0.07307797    -0.75630
O1882       O  0.66173953  0.42405598  0.00367553    -0.54460
C1883       C  0.65600797  0.42135825  0.04525061     0.78180
O1884       O  0.74451395  0.07386793  0.03003334    -0.60150
O1885       O  0.78632503  0.08539879  0.05740215    -0.53180
C1886       C  0.76669894  0.08900736  0.05259229     0.70190
O1887       O  0.67063536  0.00544746  0.96245102    -0.74710
O1888       O  0.65781757  0.46429244  0.93604210    -0.55280
C1889       C  0.65246678  0.48191925  0.94521723     0.76190
O1890       O  0.74488163  0.50351944  0.13638001    -0.59860
O1891       O  0.78814632  0.04432675  0.11756053    -0.52980
C1892       C  0.76805096  0.02665604  0.14551929     0.72780
Zr1893     Zr  0.72081855  0.47569022  0.07494546     2.54710
O1894       O  0.69368129  0.46751661  0.13848296    -0.80420
O1895       O  0.72482620  0.43811529  0.11371379    -0.93840
Zr1896     Zr  0.71947060  0.03349539  0.98767014     2.64680
O1897       O  0.69393803  0.04418795  0.02856033    -0.98790
O1898       O  0.72629393  0.06888132  0.92463362    -0.80860
O1899       O  0.69776777  0.48391749  0.01314261    -0.84210
O1900       O  0.74134193  0.02484292  0.05103397    -2.18920
O1901       O  0.81646882  0.00257279  0.02962813    -0.67600
O1902       O  0.83071871  0.04488393  0.05315677    -0.52170
C1903       C  0.83503725  0.02589343  0.04670935     0.71170
O1904       O  0.74299733  0.00878166  0.85122834    -0.60510
O1905       O  0.70049861  0.46694420  0.86995283    -0.52490
C1906       C  0.71967442  0.48607763  0.84110747     0.72970
O1907       O  0.81517851  0.07792277  0.91661547    -0.71910
O1908       O  0.82819009  0.08664731  0.98914993    -0.50580
C1909       C  0.83264651  0.09205180  0.94660918     0.74350
O1910       O  0.74683075  0.45160314  0.93310480    -0.67240
O1911       O  0.70100534  0.42235956  0.93990157    -0.54430
C1912       C  0.72425086  0.42615061  0.93522212     0.72730
Zr1913     Zr  0.76964291  0.47688977  0.99779432     2.77540
O1914       O  0.80208607  0.47421791  0.95902739    -0.97980
O1915       O  0.75809888  0.43402166  0.04828474    -0.78810
Zr1916     Zr  0.76888237  0.03503373  0.91299680     2.70070
O1917       O  0.79916708  0.03513974  0.86424051    -0.80050
O1918       O  0.76709217  0.07120014  0.86296393    -0.99140
Zr1919     Zr  0.69915042  0.46279118  0.95241090     2.21500
Zr1920     Zr  0.78939657  0.04722129  0.03607801     2.11130
O1921       O  0.79133963  0.02660353  0.97531447    -2.47820
O1922       O  0.74699439  0.48551133  0.93602888    -0.79850
O1923       O  0.76777895  0.49677837  0.05932707    -0.72040
O1924       O  0.72168302  0.01343376  0.92783075    -2.33000
O1925       O  0.72220150  0.45400518  0.01603587    -2.29210
O1926       O  0.76708324  0.05632101  0.97203219    -0.73800
H1927       H  0.73941243  0.03245611  0.07543836     0.78200
H1928       H  0.71269262  0.01642835  0.90177387     0.79280
H1929       H  0.81024086  0.03517158  0.96740114     0.81510
H1930       H  0.71282626  0.43348781  0.02483750     0.79120
H1931       H  0.70760754  0.06042321  0.91161805     0.42150
H1932       H  0.77592516  0.08794721  0.87991996     0.41120
H1933       H  0.80061028  0.01954346  0.87907911     0.40800
H1934       H  0.81729104  0.99448662  0.94817194     0.38730
H1935       H  0.77617994  0.43894824  0.06019122     0.41870
H1936       H  0.70571868  0.42014185  0.11429847     0.36650
H1937       H  0.68715660  0.47981915  0.12946418     0.42770
H1938       H  0.68375937  0.02753043  0.05216772     0.39180
H1939       H  0.81057987  0.46757190  0.98219646     0.44100
H1940       H  0.72864363  0.44217704  0.14516223     0.42820
H1941       H  0.67958181  0.04304736  0.00803495     0.42960
H1942       H  0.78053226  0.07764961  0.83893560     0.43320
O1943       O  0.74924212  0.07204374  0.53611213    -0.75550
O1944       O  0.70931472  0.03379824  0.57075815    -0.54460
C1945       C  0.72890544  0.06152990  0.56216431     0.78180
O1946       O  0.73104248  0.01032681  0.34621696    -0.60150
O1947       O  0.77186831  0.01602350  0.36094443    -0.53180
C1948       C  0.75427219  0.01608091  0.33384379     0.70190
O1949       O  0.66556619  0.49545649  0.44247210    -0.74710
O1950       O  0.66348771  0.48800045  0.51848814    -0.55280
C1951       C  0.65429162  0.49091631  0.48033911     0.76190
O1952       O  0.80098986  0.07643423  0.43591634    -0.59860
O1953       O  0.81658408  0.04954110  0.44414701    -0.52980
C1954       C  0.82066649  0.07408312  0.44377600     0.72780
Zr1955     Zr  0.76597083  0.05496536  0.49152786     2.54710
O1956       O  0.76637341  0.09467637  0.44943388    -0.80420
O1957       O  0.80553335  0.08872614  0.53495911    -0.93840
Zr1958     Zr  0.70592857  0.49960011  0.41661416     2.64680
O1959       O  0.70402851  0.03674919  0.37007370    -0.98790
O1960       O  0.66884219  0.46243115  0.37387698    -0.80860
O1961       O  0.71777868  0.02394170  0.48117436    -0.84210
O1962       O  0.75392221  0.03166147  0.42660598    -2.18920
O1963       O  0.80592370  0.49736805  0.54201955    -0.67600
O1964       O  0.80618960  0.00046932  0.46558910    -0.52170
C1965       C  0.81659292  0.49998625  0.50473835     0.71170
O1966       O  0.67523373  0.41813468  0.55544138    -0.60510
O1967       O  0.65529890  0.44020890  0.55269877    -0.52490
C1968       C  0.65358862  0.41726107  0.54915515     0.72970
O1969       O  0.72305890  0.42093130  0.44506715    -0.71910
O1970       O  0.76380791  0.45982420  0.41352407    -0.50580
C1971       C  0.74441277  0.43223238  0.42083856     0.74350
O1972       O  0.74408552  0.48632072  0.63829973    -0.67240
O1973       O  0.70237407  0.47938372  0.62658034    -0.54430
C1974       C  0.72184412  0.48187576  0.65194798     0.72730
Zr1975     Zr  0.76457674  0.49061005  0.56767909     2.77540
O1976       O  0.75871504  0.44785820  0.60974555    -0.97980
O1977       O  0.80214221  0.02117260  0.61694872    -0.78810
Zr1978     Zr  0.70488506  0.43575106  0.49210975     2.70070
O1979       O  0.70477774  0.39508067  0.52871182    -0.80050
O1980       O  0.66437037  0.40196040  0.45044412    -0.99140
Zr1981     Zr  0.70075293  0.48892537  0.54653001     2.21500
Zr1982     Zr  0.77065464  0.50245037  0.43969408     2.11130
O1983       O  0.75282081  0.46645634  0.50339781    -2.47820
O1984       O  0.71638887  0.45878776  0.55777318    -0.79850
O1985       O  0.78279287  0.02640702  0.50444307    -0.72040
O1986       O  0.68859160  0.46486215  0.48059902    -2.33000
O1987       O  0.74919305  0.02068454  0.55683330    -2.29210
O1988       O  0.72237627  0.47044668  0.42729837    -0.73800
H1989       H  0.76122966  0.04541270  0.39985585     0.78200
H1990       H  0.66896149  0.45264309  0.47557276     0.79280
H1991       H  0.76026801  0.45536053  0.50572643     0.81510
H1992       H  0.75350240  0.03045928  0.58278038     0.79120
H1993       H  0.65306742  0.45008776  0.39502786     0.42150
H1994       H  0.66869468  0.41103235  0.41893032     0.41120
H1995       H  0.70980504  0.39894941  0.56012835     0.40800
H1996       H  0.75943130  0.43770293  0.58702281     0.38730
H1997       H  0.80136430  0.03779937  0.61724183     0.41870
H1998       H  0.79898227  0.08239751  0.56636979     0.36650
H1999       H  0.74972564  0.08513119  0.43026748     0.42770
H2000       H  0.72346593  0.05224673  0.36096943     0.39180
H2001       H  0.77616712  0.45548944  0.62672943     0.44100
H2002       H  0.80783899  0.10730520  0.52686424     0.42820
H2003       H  0.69472321  0.02817082  0.34232672     0.42960
H2004       H  0.66493081  0.38508911  0.45156797     0.43320
O2005       O  0.75020764  0.18837265  0.08900301    -0.75550
O2006       O  0.75436066  0.18252079  0.01757301    -0.54460
C2007       C  0.75460430  0.17683913  0.06047497     0.78180
O2008       O  0.66367374  0.23533549  0.01531705    -0.60150
O2009       O  0.69564245  0.28342717  0.01828450    -0.53180
C2010       C  0.67032327  0.26088308  0.01271596     0.70190
O2011       O  0.67869629  0.18580494  0.94444729    -0.74710
O2012       O  0.70176870  0.16790550  0.97079317    -0.55280
C2013       C  0.67846147  0.16442737  0.96142278     0.76190
O2014       O  0.73494540  0.24696431  0.14512038    -0.59860
O2015       O  0.73655864  0.28714693  0.11706584    -0.52980
C2016       C  0.73383842  0.26815974  0.14964177     0.72780
Zr2017     Zr  0.74171622  0.22588819  0.08746189     2.54710
O2018       O  0.70248056  0.18348193  0.12993616    -0.80420
O2019       O  0.77516858  0.23498384  0.14689334    -0.93840
Zr2020     Zr  0.68918618  0.21933075  0.99341929     2.64680
O2021       O  0.65435969  0.17711231  0.04276556    -0.98790
O2022       O  0.65333933  0.21442240  0.94212139    -0.80860
O2023       O  0.71627984  0.20297172  0.02415482    -0.84210
O2024       O  0.71316040  0.24095926  0.05826221    -2.18920
O2025       O  0.80953693  0.31938191  0.05959454    -0.67600
O2026       O  0.78883241  0.34010595  0.03744532    -0.52170
C2027       C  0.81143455  0.34190918  0.04290103     0.71170
O2028       O  0.75410280  0.26073551  0.85815156    -0.60510
O2029       O  0.75085744  0.21941564  0.88537613    -0.52490
C2030       C  0.75329788  0.23839101  0.85302809     0.72970
O2031       O  0.74276685  0.32301884  0.91903520    -0.71910
O2032       O  0.74133318  0.32924345  0.99148838    -0.50580
C2033       C  0.74098776  0.33583801  0.94913049     0.74350
O2034       O  0.82529561  0.26744507  0.99670919    -0.67240
O2035       O  0.79601320  0.22507182  0.96779594    -0.54430
C2036       C  0.82037619  0.24522497  0.98229762     0.72730
Zr2037     Zr  0.80246596  0.28901547  0.00675593     2.77540
O2038       O  0.83287945  0.32412154  0.94556817    -0.97980
O2039       O  0.84536449  0.30420366  0.04618741    -0.78810
Zr2040     Zr  0.74962826  0.28398850  0.91521066     2.70070
O2041       O  0.78874073  0.32564928  0.87147348    -0.80050
O2042       O  0.71614046  0.27710573  0.85701252    -0.99140
Zr2043     Zr  0.74894906  0.21601138  0.96735552     2.21500
Zr2044     Zr  0.74236480  0.29215246  0.03554301     2.11130
O2045       O  0.77515899  0.30551326  0.97804136    -2.47820
O2046       O  0.77728706  0.26724593  0.94322290    -0.79850
O2047       O  0.77100090  0.27657791  0.06442146    -0.72040
O2048       O  0.72179190  0.23342531  0.93683605    -2.33000
O2049       O  0.77382734  0.23927599  0.03124633    -2.29210
O2050       O  0.71741108  0.26963796  0.97150704    -0.73800
H2051       H  0.69978731  0.23601195  0.08031243     0.78200
H2052       H  0.71341524  0.22627405  0.90878095     0.79280
H2053       H  0.78645222  0.32587556  0.96735077     0.81510
H2054       H  0.78549579  0.23362301  0.04407034     0.79120
H2055       H  0.66349180  0.23107875  0.91846685     0.42150
H2056       H  0.70274151  0.27836668  0.87143719     0.41120
H2057       H  0.79885104  0.31846154  0.86222598     0.40800
H2058       H  0.85131329  0.33640991  0.95921942     0.38730
H2059       H  0.83936790  0.29161665  0.07527130     0.41870
H2060       H  0.79070198  0.23743656  0.13220510     0.36650
H2061       H  0.69751817  0.16696828  0.11493103     0.42770
H2062       H  0.64868765  0.18473214  0.06295995     0.39180
H2063       H  0.82689645  0.33678773  0.93607367     0.44100
H2064       H  0.76639148  0.21626453  0.16643029     0.42820
H2065       H  0.66473292  0.17112419  0.06222550     0.42960
H2066       H  0.72645476  0.29501314  0.83557577     0.43320
O2067       O  0.67730541  0.17934339  0.43135124    -0.75550
O2068       O  0.66415454  0.20968569  0.42312072    -0.54460
C2069       C  0.66009503  0.18539167  0.41999012     0.78180
O2070       O  0.72875991  0.23229600  0.64670284    -0.60150
O2071       O  0.76917858  0.23764046  0.63728480    -0.53180
C2072       C  0.75063160  0.23434057  0.66194205     0.70190
O2073       O  0.66929034  0.23861496  0.55798394    -0.74710
O2074       O  0.66805544  0.25015162  0.48239036    -0.55280
C2075       C  0.65948988  0.24507462  0.52277482     0.76190
O2076       O  0.72532858  0.16545746  0.53273710    -0.59860
O2077       O  0.76317711  0.19334209  0.57507569    -0.52980
C2078       C  0.74347307  0.16849062  0.56176341     0.72780
Zr2079     Zr  0.71156735  0.19317237  0.48862955     2.54710
O2080       O  0.67066865  0.14780875  0.52198209    -0.80420
O2081       O  0.71994638  0.16926554  0.43979365    -0.93840
Zr2082     Zr  0.70719612  0.23465843  0.57463192     2.64680
O2083       O  0.66884070  0.18715878  0.60802962    -0.98790
O2084       O  0.70493711  0.26085395  0.62771662    -0.80860
O2085       O  0.69119637  0.21575179  0.50501237    -0.84210
O2086       O  0.72554735  0.20995965  0.55958159    -2.18920
O2087       O  0.81227344  0.26607665  0.44261079    -0.67600
O2088       O  0.81245052  0.25002329  0.51682055    -0.52170
C2089       C  0.82189889  0.25837620  0.47630355     0.71170
O2090       O  0.75497002  0.33318137  0.46424792    -0.60510
O2091       O  0.71671623  0.30422859  0.42342308    -0.52490
C2092       C  0.73660628  0.32936080  0.43493467     0.72970
O2093       O  0.78804860  0.30278500  0.58512082    -0.71910
O2094       O  0.81471426  0.28826832  0.58345830    -0.50580
C2095       C  0.81193445  0.30807377  0.58907320     0.74350
O2096       O  0.75330073  0.27249213  0.35461061    -0.67240
O2097       O  0.71097367  0.26282183  0.36442915    -0.54430
C2098       C  0.73090954  0.26931286  0.33952130     0.72730
Zr2099     Zr  0.77271834  0.26612511  0.42647242     2.77540
O2100       O  0.80976567  0.31388220  0.39162214    -0.97980
O2101       O  0.77467938  0.23934739  0.37411676    -0.78810
Zr2102     Zr  0.76962245  0.30729386  0.51276155     2.70070
O2103       O  0.81509976  0.34635126  0.48113244    -0.80050
O2104       O  0.76753655  0.33984409  0.55223198    -0.99140
Zr2105     Zr  0.70535762  0.25509196  0.44628712     2.21500
Zr2106     Zr  0.77478514  0.24355288  0.55558019     2.11130
O2107       O  0.78911933  0.28375064  0.49691084    -2.47820
O2108       O  0.75407855  0.28989291  0.44271133    -0.79850
O2109       O  0.75992517  0.22679731  0.48382725    -0.72040
O2110       O  0.72111621  0.27393114  0.51655772    -2.33000
O2111       O  0.72468766  0.23126974  0.43028755    -2.29210
O2112       O  0.75540478  0.26797874  0.56953614    -0.73800
H2113       H  0.71992698  0.19425010  0.58330323     0.78200
H2114       H  0.71400212  0.28449633  0.52199429     0.79280
H2115       H  0.80906825  0.29721064  0.49607925     0.81510
H2116       H  0.71854482  0.22387281  0.40184046     0.79120
H2117       H  0.72145565  0.28105107  0.62072958     0.42150
H2118       H  0.74846448  0.33433233  0.54754273     0.41120
H2119       H  0.81110826  0.35411982  0.45246587     0.40800
H2120       H  0.82450419  0.32183420  0.41449935     0.38730
H2121       H  0.77138796  0.22191263  0.39274981     0.41870
H2122       H  0.71984780  0.17816093  0.40912661     0.36650
H2123       H  0.67183952  0.14982599  0.55416108     0.42770
H2124       H  0.67771023  0.17877417  0.62587770     0.39180
H2125       H  0.81730173  0.31000800  0.36822591     0.44100
H2126       H  0.70274206  0.14928916  0.44172353     0.42820
H2127       H  0.66108517  0.19132320  0.63061604     0.42960
H2128       H  0.76798542  0.33344695  0.58439683     0.43320
C2129       C  0.77352253  0.26023632  0.77667926    -0.09420
C2130       C  0.75529588  0.23511493  0.80569803     0.06780
C2131       C  0.73735654  0.20881090  0.78721247    -0.03190
C2132       C  0.73709925  0.20851389  0.74053773    -0.07630
C2133       C  0.75476322  0.23402126  0.71147150     0.05890
C2134       C  0.77330742  0.25991126  0.73045609    -0.02660
Br2135     Br  0.79675148  0.29640116  0.69495417    -0.02350
H2136       H  0.78734375  0.28071512  0.78988859     0.09810
H2137       H  0.72226112  0.18847065  0.72670782     0.07820
Br2138     Br  0.71084212  0.17334722  0.82327581    -0.02780
C2139       C  0.74827693  0.29598924  0.21550282    -0.09420
C2140       C  0.72937110  0.27036392  0.19631714     0.06780
C2141       C  0.70826738  0.24591751  0.22402327    -0.03190
C2142       C  0.70756234  0.24676976  0.27008274    -0.07630
C2143       C  0.72784229  0.27163419  0.28984910     0.05890
C2144       C  0.74777304  0.29666011  0.26178548    -0.02660
Br2145     Br  0.77516718  0.33201081  0.28580341    -0.02350
H2146       H  0.76449407  0.31507573  0.19498850     0.09810
H2147       H  0.69206553  0.22732384  0.29097581     0.07820
Br2148     Br  0.68008975  0.21051209  0.20068725    -0.02780
C2149       C  0.76599487  0.38337802  0.41976800    -0.09420
C2150       C  0.73989743  0.35680142  0.41523123     0.06780
C2151       C  0.71789023  0.35807258  0.39814671    -0.03190
C2152       C  0.72119660  0.38459427  0.39308968    -0.07630
C2153       C  0.74617841  0.41026844  0.40461981     0.05890
C2154       C  0.76923252  0.40973740  0.41488235    -0.02660
Br2155     Br  0.80453198  0.44321521  0.42980941    -0.02350
H2156       H  0.78381542  0.38353616  0.43067276     0.09810
H2157       H  0.70323283  0.38457524  0.38430744     0.07820
Br2158     Br  0.68225525  0.32439383  0.38511286    -0.02780
C2159       C  0.75635363  0.11009920  0.58966007    -0.09420
C2160       C  0.72988122  0.08495232  0.58059935     0.06780
C2161       C  0.70767162  0.08723797  0.57633979    -0.03190
C2162       C  0.71250420  0.11424756  0.57626508    -0.07630
C2163       C  0.73954687  0.14019389  0.57866148     0.05890
C2164       C  0.76136855  0.13739947  0.58827394    -0.02660
Br2165     Br  0.79881818  0.17032976  0.59423730    -0.02350
H2166       H  0.77396177  0.10911851  0.59351267     0.09810
H2167       H  0.69497566  0.11527455  0.57021757     0.07820
Br2168     Br  0.67106691  0.05552197  0.56320720    -0.02780
C2169       C  0.70130969  0.45656135  0.72793286    -0.09420
C2170       C  0.71959914  0.48215628  0.69982207     0.06780
C2171       C  0.73502756  0.00860981  0.71725986    -0.03190
C2172       C  0.73320939  0.00911383  0.76259317    -0.07630
C2173       C  0.71628031  0.48345743  0.79214973     0.05890
C2174       C  0.69947771  0.45700110  0.77383894    -0.02660
Br2175     Br  0.67421529  0.42088063  0.80914268    -0.02350
H2176       H  0.68872451  0.43616408  0.71426785     0.09810
H2177       H  0.74569170  0.02997576  0.77486349     0.07820
Br2178     Br  0.75863750  0.04486163  0.68020666    -0.02780
C2179       C  0.78711260  0.02814165  0.22161183    -0.09420
C2180       C  0.77026133  0.03235128  0.19192305     0.06780
C2181       C  0.75032805  0.03427293  0.20895430    -0.03190
C2182       C  0.74613852  0.02991650  0.25505644    -0.07630
C2183       C  0.76149998  0.02344916  0.28529049     0.05890
C2184       C  0.78305648  0.02368142  0.26789971    -0.02660
Br2185     Br  0.80660543  0.01567220  0.30355168    -0.02350
H2186       H  0.80212838  0.02613035  0.20868024     0.09810
H2187       H  0.73015196  0.03075582  0.26709576     0.07820
Br2188     Br  0.72717420  0.04124780  0.17016759    -0.02780
C2189       C  0.75043487  0.40562326  0.95641845    -0.09420
C2190       C  0.72704328  0.40200060  0.93503402     0.06780
C2191       C  0.70913916  0.37695714  0.91368987    -0.03190
C2192       C  0.71518280  0.35655974  0.91401532    -0.07630
C2193       C  0.73860111  0.36034711  0.93669260     0.05890
C2194       C  0.75626276  0.38556738  0.95766353    -0.02660
Br2195     Br  0.78836038  0.39386702  0.99130624    -0.02350
H2196       H  0.76409780  0.42396876  0.97412970     0.09810
H2197       H  0.70094119  0.33720079  0.89831602     0.07820
Br2198     Br  0.67629280  0.36961419  0.88484465    -0.02780
C2199       C  0.78684155  0.16207040  0.07318871    -0.09420
C2200       C  0.76009043  0.15506307  0.07699969     0.06780
C2201       C  0.73789536  0.12590939  0.08697864    -0.03190
C2202       C  0.74166947  0.10438086  0.08549922    -0.07630
C2203       C  0.76744764  0.11123548  0.07372977     0.05890
C2204       C  0.79070213  0.14022017  0.07257729    -0.02660
Br2205     Br  0.82736746  0.15071508  0.06765760    -0.02350
H2206       H  0.80446639  0.18456135  0.06766943     0.09810
H2207       H  0.72360504  0.08206643  0.08934799     0.07820
Br2208     Br  0.70131591  0.11437332  0.09714016    -0.02780
C2209       C  0.87177721  0.12348175  0.52485088    -0.09420
C2210       C  0.87945076  0.15054592  0.50306538     0.06780
C2211       C  0.87096692  0.15180720  0.45806086    -0.03190
C2212       C  0.85426270  0.12663641  0.43754231    -0.07630
C2213       C  0.84625228  0.09967254  0.45976221     0.05890
C2214       C  0.85615010  0.09858086  0.50348955    -0.02660
Br2215     Br  0.84806453  0.06395320  0.53770628    -0.02350
H2216       H  0.87895396  0.12184784  0.55858219     0.09810
H2217       H  0.84679272  0.12797826  0.40392994     0.07820
Br2218     Br  0.88353116  0.18644676  0.41929668    -0.02780
C2219       C  0.60825160  0.34532309  0.50146815    -0.09420
C2220       C  0.59715465  0.35208694  0.46289241     0.06780
C2221       C  0.60258964  0.37988691  0.45642792    -0.03190
C2222       C  0.61802118  0.39948874  0.48797529    -0.07630
C2223       C  0.63010446  0.39308818  0.52536068     0.05890
C2224       C  0.62458775  0.36532167  0.53199865    -0.02660
Br2225     Br  0.63840293  0.35307506  0.58294613    -0.02350
H2226       H  0.60349500  0.32396590  0.50915220     0.09810
H2227       H  0.62196043  0.42056514  0.48151882     0.07820
Br2228     Br  0.59071909  0.39317495  0.40392537    -0.02780
C2229       C  0.88463951  0.27159871  0.42612278    -0.09420
C2230       C  0.88197278  0.24644936  0.44570906     0.06780
C2231       C  0.85840945  0.22497106  0.47251492    -0.03190
C2232       C  0.83963331  0.22994295  0.48217338    -0.07630
C2233       C  0.84354106  0.25590335  0.46598519     0.05890
C2234       C  0.86552853  0.27651522  0.43615321    -0.02660
Br2235     Br  0.87193062  0.31271682  0.41214747    -0.02350
H2236       H  0.90292643  0.28860314  0.40664132     0.09810
H2237       H  0.82185294  0.21339244  0.50308461     0.07820
Br2238     Br  0.85090771  0.18927131  0.50180184    -0.02780
C2239       C  0.59711669  0.23859197  0.56128742    -0.09420
C2240       C  0.59748102  0.25884302  0.52844922     0.06780
C2241       C  0.62014225  0.27659380  0.49866991    -0.03190
C2242       C  0.64034930  0.27208665  0.49937865    -0.07630
C2243       C  0.63857849  0.24987152  0.52863330     0.05890
C2244       C  0.61759509  0.23394032  0.56166858    -0.02660
Br2245     Br  0.61424391  0.20408119  0.60516337    -0.02350
H2246       H  0.57983620  0.22487400  0.58438590     0.09810
H2247       H  0.65729846  0.28565215  0.47564851     0.07820
Br2248     Br  0.62470403  0.30636202  0.45369229    -0.02780
C2249       C  0.98545317  0.27116832  0.74916450    -0.09420
C2250       C  0.98310469  0.24763594  0.77631689     0.06780
C2251       C  0.97088024  0.22159702  0.75761082    -0.03190
C2252       C  0.96298499  0.22026037  0.71267367    -0.07630
C2253       C  0.96720785  0.24439099  0.68522600     0.05890
C2254       C  0.97794663  0.26980356  0.70397383    -0.02660
Br2255     Br  0.48570882  0.30415127  0.66773734    -0.02350
H2256       H  0.49439601  0.29129493  0.76252073     0.09810
H2257       H  0.95537587  0.20083022  0.69809420     0.07820
Br2258     Br  0.96468761  0.18699175  0.78977075    -0.02780
C2259       C  0.50129844  0.22778775  0.22148509    -0.09420
C2260       C  0.49897193  0.24714950  0.19040468     0.06780
C2261       C  0.50405695  0.27188351  0.20602899    -0.03190
C2262       C  0.50908531  0.27534357  0.25140439    -0.07630
C2263       C  0.50979096  0.25517742  0.28258440     0.05890
C2264       C  0.50655946  0.23158485  0.26707442    -0.02660
Br2265     Br  0.50670595  0.20264235  0.30737221    -0.02350
H2266       H  0.49812573  0.20903808  0.21065792     0.09810
H2267       H  0.51161629  0.29364868  0.26282659     0.07820
Br2268     Br  0.50502956  0.30262460  0.16865840    -0.02780
C2269       C  0.88039627  0.10893218  0.93712407    -0.09420
C2270       C  0.86048350  0.11450909  0.93008543     0.06780
C2271       C  0.86637473  0.13907542  0.90175940    -0.03190
C2272       C  0.89304332  0.15926669  0.88463972    -0.07630
C2273       C  0.91417199  0.15562740  0.89636838     0.05890
C2274       C  0.90730875  0.12933121  0.92076519    -0.02660
Br2275     Br  0.93351354  0.12044559  0.93564716    -0.02350
H2276       H  0.87493869  0.08863348  0.95566213     0.09810
H2277       H  0.89780285  0.17896952  0.86473071     0.07820
Br2278     Br  0.83920256  0.14673878  0.88819832    -0.02780
C2279       C  0.58313639  0.36903486  0.09138783    -0.09420
C2280       C  0.57896764  0.34310795  0.08645152     0.06780
C2281       C  0.60246928  0.34355954  0.08284117    -0.03190
C2282       C  0.62710357  0.36915322  0.06677185    -0.07630
C2283       C  0.63005594  0.39511895  0.06380494     0.05890
C2284       C  0.60960712  0.39501900  0.08410626    -0.02660
Br2285     Br  0.61760098  0.42731749  0.10943666    -0.02350
H2286       H  0.56589218  0.36920086  0.09900321     0.09810
H2287       H  0.64426441  0.36895432  0.05865161     0.07820
Br2288     Br  0.60184438  0.31022534  0.10144563    -0.02780
C2289       C  0.87167164  0.26976103  0.99475404    -0.09420
C2290       C  0.84532641  0.24418020  0.98642724     0.06780
C2291       C  0.84405736  0.21899016  0.98750590    -0.03190
C2292       C  0.86731355  0.21909540  0.00152268    -0.07630
C2293       C  0.89322217  0.24428144  0.01295992     0.05890
C2294       C  0.89520708  0.27014657  0.00675799    -0.02660
Br2295     Br  0.92962704  0.30727443  0.00987349    -0.02350
H2296       H  0.87427632  0.29015518  0.99168232     0.09810
H2297       H  0.86517308  0.19914648  0.00172259     0.07820
Br2298     Br  0.81207786  0.18446067  0.96715049    -0.02780
C2299       C  0.59627342  0.23848466  0.99367565    -0.09420
C2300       C  0.59846906  0.25482270  0.95253645     0.06780
C2301       C  0.62521219  0.27512598  0.93382077    -0.03190
C2302       C  0.64886361  0.27902592  0.95603591    -0.07630
C2303       C  0.64678046  0.26292361  0.99751487     0.05890
C2304       C  0.61978033  0.24216832  0.01577443    -0.02660
Br2305     Br  0.61379844  0.21814320  0.07140613    -0.02350
H2306       H  0.57619792  0.22340572  0.00963705     0.09810
H2307       H  0.66874696  0.29333352  0.93942895     0.07820
Br2308     Br  0.62966138  0.29577966  0.87556249    -0.02780
C2309       C  0.88194349  0.37601804  0.61835167    -0.09420
C2310       C  0.88047440  0.39773477  0.59258591     0.06780
C2311       C  0.85548358  0.38919692  0.57079632    -0.03190
C2312       C  0.83309322  0.36022273  0.57503309    -0.07630
C2313       C  0.83553035  0.33828193  0.59542374     0.05890
C2314       C  0.86014155  0.34642511  0.61850914    -0.02660
Br2315     Br  0.86554624  0.31841112  0.64877069    -0.02350
H2316       H  0.90142339  0.38191747  0.63369770     0.09810
H2317       H  0.81457635  0.35471742  0.55717340     0.07820
Br2318     Br  0.85279295  0.41364531  0.52358746    -0.02780
C2319       C  0.62711394  0.14861683  0.37030595    -0.09420
C2320       C  0.63279378  0.15970071  0.41136500     0.06780
C2321       C  0.61927412  0.14042032  0.45003694    -0.03190
C2322       C  0.60396498  0.11086376  0.44866614    -0.07630
C2323       C  0.59578698  0.09957859  0.40787273     0.05890
C2324       C  0.60712949  0.11880846  0.36808270    -0.02660
Br2325     Br  0.59591405  0.10492831  0.31102224    -0.02350
H2326       H  0.63827245  0.16298745  0.34040860     0.09810
H2327       H  0.59553540  0.09639310  0.47938420     0.07820
Br2328     Br  0.62237155  0.15393875  0.50607443    -0.02780
C2329       C  0.86102827  0.02315004  0.47119541    -0.09420
C2330       C  0.84199945  0.50293137  0.50463628     0.06780
C2331       C  0.84407751  0.48173099  0.52875340    -0.03190
C2332       C  0.86545203  0.48083692  0.51878251    -0.07630
C2333       C  0.88391489  0.99982733  0.48376699     0.05890
C2334       C  0.88211932  0.02148990  0.46019803    -0.02660
Br2335     Br  0.90832241  0.04986731  0.41443547    -0.02350
H2336       H  0.85943294  0.03965808  0.45224584     0.09810
H2337       H  0.86801023  0.46564237  0.53960997     0.07820
Br2338     Br  0.81716057  0.45180063  0.57208618    -0.02780
C2339       C  0.62227967  0.99054692  0.52608960    -0.09420
C2340       C  0.62927600  0.48943603  0.48330498     0.06780
C2341       C  0.61222820  0.48675888  0.44674707    -0.03190
C2342       C  0.59005978  0.48750160  0.45298166    -0.07630
C2343       C  0.58497424  0.99155444  0.49488088     0.05890
C2344       C  0.60064733  0.99195874  0.53212649    -0.02660
Br2345     Br  0.59548952  0.99632987  0.59144305    -0.02350
H2346       H  0.63428364  0.99148282  0.55560700     0.09810
H2347       H  0.57709274  0.48553204  0.42431861     0.07820
Br2348     Br  0.61725196  0.48155743  0.38815273    -0.02780
C2349       C  0.96361107  0.34760966  0.46532989    -0.09420
C2350       C  0.97905228  0.34814515  0.50359994     0.06780
C2351       C  0.99964301  0.37552884  0.51770661    -0.03190
C2352       C  0.50453649  0.40113680  0.49388945    -0.07630
C2353       C  0.98891800  0.40056809  0.45596235     0.05890
C2354       C  0.96838001  0.37328119  0.44178025    -0.02660
Br2355     Br  0.94727375  0.37028464  0.38867769    -0.02350
H2356       H  0.94859867  0.32727651  0.45237830     0.09810
H2357       H  0.51963543  0.42148927  0.50673462     0.07820
Br2358     Br  0.52091945  0.37922603  0.57099379    -0.02780
C2359       C  0.97686924  0.10309663  0.46922185    -0.09420
C2360       C  0.98412724  0.09891998  0.51367705     0.06780
C2361       C  0.99967349  0.12344436  0.53696518    -0.03190
C2362       C  0.00730056  0.15091906  0.51627750    -0.07630
C2363       C  0.99991358  0.15502428  0.47175177     0.05890
C2364       C  0.48446354  0.13045731  0.44850673    -0.02660
Br2365     Br  0.47411746  0.13348747  0.38725113    -0.02350
H2366       H  0.46664723  0.08529005  0.44946401     0.09810
H2367       H  0.01793489  0.16885613  0.53585477     0.07820
Br2368     Br  0.01024295  0.11998065  0.59793295    -0.02780
C2369       C  0.50193718  0.01746344  0.75932098    -0.09420
C2370       C  0.98166403  0.49220294  0.78589284     0.06780
C2371       C  0.95960716  0.46831782  0.76563988    -0.03190
C2372       C  0.95875929  0.46986955  0.71907189    -0.07630
C2373       C  0.97958124  0.49495114  0.69300610     0.05890
C2374       C  0.50100386  0.01898013  0.71314089    -0.02660
Br2375     Br  0.52917647  0.05441286  0.67881977    -0.02350
H2376       H  0.51877761  0.03606703  0.77457939     0.09810
H2377       H  0.94214711  0.45143580  0.70322402     0.07820
Br2378     Br  0.92966206  0.43398955  0.79947495    -0.02780
C2379       C  0.97688368  0.47873664  0.22029640    -0.09420
C2380       C  0.99589850  0.00496265  0.19405425     0.06780
C2381       C  0.51510530  0.03012016  0.21439116    -0.03190
C2382       C  0.51399372  0.02882081  0.26045565    -0.07630
C2383       C  0.49423238  0.00280236  0.28587250     0.05890
C2384       C  0.97606901  0.47751018  0.26614289    -0.02660
Br2385     Br  0.95044379  0.44088951  0.30078585    -0.02350
H2386       H  0.96234426  0.45915764  0.20510502     0.09810
H2387       H  0.52843719  0.04806369  0.27649030     0.07820
Br2388     Br  0.54406324  0.06610543  0.18198888    -0.02780
C2389       C  0.88607765  0.38472690  0.00235840    -0.09420
C2390       C  0.88596243  0.39945857  0.96069635     0.06780
C2391       C  0.86123526  0.39679085  0.94823980    -0.03190
C2392       C  0.83771473  0.37983198  0.97643871    -0.07630
C2393       C  0.83810437  0.36580308  0.01861904     0.05890
C2394       C  0.86334498  0.36976169  0.03196561    -0.02660
Br2395     Br  0.86896147  0.35774325  0.09224035    -0.02350
H2396       H  0.90438740  0.38601193  0.01348304     0.09810
H2397       H  0.81863395  0.37626423  0.96378332     0.07820
Br2398     Br  0.85764288  0.41381500  0.89090441    -0.02780
C2399       C  0.64901762  0.12169811  0.01897092    -0.09420
C2400       C  0.65077597  0.13847747  0.97883299     0.06780
C2401       C  0.62606908  0.13512062  0.96241392    -0.03190
C2402       C  0.60144032  0.11733618  0.98735239    -0.07630
C2403       C  0.59971910  0.10079269  0.02766947     0.05890
C2404       C  0.62390723  0.10279876  0.04290578    -0.02660
Br2405     Br  0.62399716  0.08029654  0.09664057    -0.02350
H2406       H  0.66748300  0.12414561  0.03274972     0.09810
H2407       H  0.58292665  0.11473239  0.97321977     0.07820
Br2408     Br  0.62370083  0.15287519  0.90462053    -0.02780
C2409       C  0.86053629  0.50329157  0.07003701    -0.09420
C2410       C  0.86239725  0.02900532  0.05821570     0.06780
C2411       C  0.88984724  0.05487118  0.05189430    -0.03190
C2412       C  0.91333465  0.05396285  0.05047902    -0.07630
C2413       C  0.91062183  0.02750552  0.05825693     0.05890
C2414       C  0.88370657  0.50245751  0.07116285    -0.02660
Br2415     Br  0.87680818  0.46544899  0.09021050    -0.02350
H2416       H  0.84038103  0.48301716  0.07744961     0.09810
H2417       H  0.93347163  0.07389560  0.04159806     0.07820
Br2418     Br  0.89632528  0.09179705  0.04567238    -0.02780
C2419       C  0.61010510  0.47427578  0.89824021    -0.09420
C2420       C  0.62312114  0.47444909  0.94002645     0.06780
C2421       C  0.60917901  0.47157692  0.97805375    -0.03190
C2422       C  0.58322059  0.46685782  0.97511266    -0.07630
C2423       C  0.57107214  0.46894401  0.93408795     0.05890
C2424       C  0.58509164  0.47272801  0.89506372    -0.02660
Br2425     Br  0.57226046  0.47859753  0.83716075    -0.02350
H2426       H  0.62045730  0.47767052  0.86781968     0.09810
H2427       H  0.57402270  0.96516315  0.00575799     0.07820
Br2428     Br  0.62681704  0.97957813  0.03479960    -0.02780
C2429       C  0.99744219  0.35831243  0.03429643    -0.09420
C2430       C  0.00542966  0.35813913  0.99168558     0.06780
C2431       C  0.50973476  0.37914479  0.95644584    -0.03190
C2432       C  0.50209440  0.39684929  0.96246369    -0.07630
C2433       C  0.49186415  0.39518410  0.00388309     0.05890
C2434       C  0.99032964  0.37638931  0.04040507    -0.02660
Br2435     Br  0.97435160  0.37092697  0.09679182    -0.02350
H2436       H  0.99428945  0.34264967  0.06256512     0.09810
H2437       H  0.50335095  0.41127278  0.93392265     0.07820
Br2438     Br  0.52618828  0.38520698  0.90020764    -0.02780
C2439       C  0.02969085  0.13882915  0.92893661    -0.09420
C2440       C  0.03815343  0.12873814  0.96659512     0.06780
C2441       C  0.54652355  0.14300623  0.00502541    -0.03190
C2442       C  0.53851364  0.16058731  0.00992782    -0.07630
C2443       C  0.02373755  0.16521325  0.97580033     0.05890
C2444       C  0.02213544  0.15690019  0.93307028    -0.02660
Br2445     Br  0.00785400  0.16647760  0.87934195    -0.02350
H2446       H  0.02480218  0.12925971  0.89821532     0.09810
H2447       H  0.54213027  0.16883072  0.04157229     0.07820
Br2448     Br  0.56486435  0.13580005  0.05445580    -0.02780
O2449       O  0.56851206  0.55186994  0.05162577    -0.75550
O2450       O  0.55039161  0.57654625  0.04189355    -0.54460
C2451       C  0.57163291  0.57565084  0.04425585     0.78180
O2452       O  0.49110386  0.51591836  0.84777180    -0.60150
O2453       O  0.47995434  0.97017113  0.85928487    -0.53180
C2454       C  0.48404515  0.99243736  0.83422341     0.70190
O2455       O  0.52510807  0.58681378  0.93696098    -0.74710
O2456       O  0.01579083  0.58422013  0.00990051    -0.55280
C2457       C  0.02640119  0.59813176  0.97155864     0.76190
O2458       O  0.56267389  0.49979014  0.95664008    -0.59860
O2459       O  0.52490887  0.96165510  0.92604806    -0.52980
C2460       C  0.55129566  0.97731519  0.93688453     0.72780
Zr2461     Zr  0.54692453  0.52083671  0.99505117     2.54710
O2462       O  0.58661632  0.56221110  0.95207207    -0.80420
O2463       O  0.57266837  0.50578301  0.04199816    -0.93840
Zr2464     Zr  0.50136525  0.53829282  0.91517312     2.64680
O2465       O  0.53817984  0.57324977  0.86147617    -0.98790
O2466       O  0.97149644  0.55065742  0.87686248    -0.80860
O2467       O  0.52811155  0.54751039  0.98026588    -0.84210
O2468       O  0.52057531  0.51160921  0.92813806    -2.18920
O2469       O  0.98985046  0.92725008  0.04062566    -0.67600
O2470       O  0.47045489  0.91603562  0.97231778    -0.52170
C2471       C  0.48272705  0.91312949  0.00677387     0.71170
O2472       O  0.92179381  0.00310020  0.01982642    -0.60510
O2473       O  0.95846955  0.53863080  0.05607423    -0.52490
C2474       C  0.93225681  0.52355561  0.04415044     0.72970
O2475       O  0.91846412  0.94762222  0.92740557    -0.71910
O2476       O  0.93271715  0.91978949  0.93508159    -0.50580
C2477       C  0.91291074  0.92255387  0.93668487     0.74350
O2478       O  0.98840626  0.98144048  0.13287817    -0.67240
O2479       O  0.99996242  0.52736395  0.12053541    -0.54430
C2480       C  0.99492718  0.50483659  0.14597800     0.72730
Zr2481     Zr  0.98141150  0.96004059  0.06571901     2.77540
O2482       O  0.93719794  0.91754552  0.09591574    -0.97980
O2483       O  0.50032035  0.94415642  0.12735842    -0.78810
Zr2484     Zr  0.93514524  0.97737237  0.98674987     2.70070
O2485       O  0.89895539  0.93665208  0.03600080    -0.80050
O2486       O  0.89874668  0.97942395  0.94820039    -0.99140
Zr2487     Zr  0.99912733  0.53676331  0.04092898     2.21500
Zr2488     Zr  0.48276420  0.96155117  0.93910433     2.11130
O2489       O  0.95429619  0.95072976  0.00187054    -2.47820
O2490       O  0.96185805  0.98655869  0.05296406    -0.79850
O2491       O  0.51014304  0.97179577  0.00501781    -0.72040
O2492       O  0.97193464  0.52721942  0.97467443    -2.33000
O2493       O  0.51828111  0.50946563  0.05652923    -2.29210
O2494       O  0.96364112  0.98879948  0.92502333    -0.73800
H2495       H  0.53174484  0.51572414  0.90290304     0.78200
H2496       H  0.96526840  0.53907931  0.96909523     0.79280
H2497       H  0.94001396  0.93061988  0.00885579     0.81510
H2498       H  0.52851749  0.51318269  0.08415953     0.79120
H2499       H  0.97798853  0.56922646  0.88685362     0.42150
H2500       H  0.90199136  0.98125269  0.91593224     0.41120
H2501       H  0.90748368  0.93902312  0.06604013     0.40800
H2502       H  0.93752771  0.90104520  0.09203098     0.38730
H2503       H  0.52057113  0.95703360  0.12198970     0.41870
H2504       H  0.57655423  0.51404325  0.07035114     0.36650
H2505       H  0.57854100  0.56916734  0.92858258     0.42770
H2506       H  0.54533595  0.56297705  0.85252360     0.39180
H2507       H  0.93884063  0.91825247  0.12860061     0.44100
H2508       H  0.55883232  0.48474967  0.05053638     0.42820
H2509       H  0.52853174  0.57541043  0.83460553     0.42960
H2510       H  0.88149851  0.95976612  0.95533231     0.43320
O2511       O  0.96534249  0.92204132  0.43998574    -0.75550
O2512       O  0.51155707  0.95260849  0.43543205    -0.54460
C2513       C  0.48888827  0.92654712  0.44063125     0.78180
O2514       O  0.91756219  0.50232068  0.44263217    -0.60150
O2515       O  0.91732617  0.49724238  0.51906660    -0.53180
C2516       C  0.90791101  0.49992507  0.48083976     0.70190
O2517       O  0.97283695  0.50190979  0.34700426    -0.74710
O2518       O  0.51112394  0.50158830  0.35686072    -0.55280
C2519       C  0.49270207  0.50218552  0.33302859     0.76190
O2520       O  0.91809711  0.91644862  0.54967898    -0.59860
O2521       O  0.91440575  0.94977169  0.57328778    -0.52980
C2522       C  0.90638161  0.92348929  0.57190985     0.72780
Zr2523     Zr  0.95188754  0.93879178  0.49308125     2.54710
O2524       O  0.90862010  0.90748949  0.45437245    -0.80420
O2525       O  0.94838437  0.89719003  0.53509002    -0.93840
Zr2526     Zr  0.95462682  0.50146085  0.41630007     2.64680
O2527       O  0.91362845  0.96701845  0.37602428    -0.98790
O2528       O  0.95904389  0.54181334  0.36782342    -0.80860
O2529       O  0.96903360  0.97046116  0.42586622    -0.84210
O2530       O  0.93684765  0.96886800  0.48280155    -2.18920
O2531       O  0.99861200  0.99324288  0.63112374    -0.67600
O2532       O  0.96347075  0.99862156  0.62101016    -0.52170
C2533       C  0.98028807  0.99530781  0.64528137     0.71170
O2534       O  0.54984658  0.57747884  0.41657658    -0.60510
O2535       O  0.56210707  0.54758860  0.41365401    -0.52490
C2536       C  0.56756267  0.57303343  0.40993794     0.72970
O2537       O  0.00843319  0.57886088  0.52823324    -0.71910
O2538       O  0.96228758  0.54650265  0.53275789    -0.50580
C2539       C  0.98446735  0.57306356  0.52776531     0.74350
O2540       O  0.55201349  0.49121509  0.53403792    -0.67240
O2541       O  0.55822577  0.50471412  0.45897252    -0.54430
C2542       C  0.56388831  0.49632345  0.49671031     0.72730
Zr2543     Zr  0.51763536  0.49578023  0.56127485     2.77540
O2544       O  0.55939702  0.52955891  0.60093394    -0.97980
O2545       O  0.51331001  0.95613266  0.61174812    -0.78810
Zr2546     Zr  0.52163293  0.55891889  0.48189611     2.70070
O2547       O  0.56179873  0.58761795  0.52830635    -0.80050
O2548       O  0.53296608  0.60446636  0.44098823    -0.99140
Zr2549     Zr  0.51798961  0.49971419  0.43520132     2.21500
Zr2550     Zr  0.95557303  0.49828597  0.54219303     2.11130
O2551       O  0.00452057  0.52772819  0.55003393    -2.47820
O2552       O  0.53667345  0.52881558  0.49493531    -0.79850
O2553       O  0.96900333  0.96644743  0.55393279    -0.72040
O2554       O  0.50313142  0.53036579  0.42183851    -2.33000
O2555       O  0.50013988  0.96700647  0.50280360    -2.29210
O2556       O  0.97288870  0.53071626  0.47489601    -0.73800
H2557       H  0.91684987  0.95706269  0.48261144     0.78200
H2558       H  0.50911267  0.54150028  0.39265965     0.79280
H2559       H  0.01041131  0.53889066  0.57473173     0.81510
H2560       H  0.50572731  0.95426331  0.50956549     0.79120
H2561       H  0.97863143  0.55464593  0.35793197     0.42150
H2562       H  0.01518351  0.59984834  0.42810204     0.41120
H2563       H  0.56478173  0.57368603  0.54564678     0.40800
H2564       H  0.55473313  0.54065040  0.61473411     0.38730
H2565       H  0.99468644  0.93886204  0.60548891     0.41870
H2566       H  0.96770244  0.90401874  0.54186361     0.36650
H2567       H  0.91377101  0.91262981  0.42231160     0.42770
H2568       H  0.91776198  0.95417984  0.36691199     0.39180
H2569       H  0.56044299  0.51726891  0.62650123     0.44100
H2570       H  0.94184541  0.88324768  0.51337293     0.42820
H2571       H  0.91411491  0.97853655  0.34775277     0.42960
H2572       H  0.53774309  0.61732508  0.46372907     0.43320
O2573       O  0.57740056  0.77914102  0.93692114    -0.75550
O2574       O  0.55023293  0.73223580  0.92833446    -0.54460
C2575       C  0.57425665  0.75541961  0.93629661     0.78180
O2576       O  0.49698081  0.72543068  0.12662939    -0.60150
O2577       O  0.48295900  0.75478774  0.11848259    -0.53180
C2578       C  0.49228840  0.74185553  0.14234770     0.70190
O2579       O  0.01354739  0.68765552  0.02292615    -0.74710
O2580       O  0.99389569  0.67826134  0.95557686    -0.55280
C2581       C  0.00946295  0.67743884  0.98570081     0.76190
O2582       O  0.55927489  0.82233826  0.02150288    -0.59860
O2583       O  0.53009010  0.80652526  0.07854349    -0.52980
C2584       C  0.55461202  0.82245368  0.06175981     0.72780
Zr2585     Zr  0.55364244  0.78279740  0.99246832     2.54710
O2586       O  0.57326831  0.76361746  0.04676209    -0.80420
O2587       O  0.60175066  0.82523775  0.98830558    -0.93840
Zr2588     Zr  0.49226367  0.70735974  0.05392231     2.64680
O2589       O  0.51087315  0.68862564  0.11152903    -0.98790
O2590       O  0.95009803  0.66004305  0.07733952    -0.80860
O2591       O  0.52570460  0.73254944  0.99499575    -0.84210
O2592       O  0.52055023  0.75812175  0.05148448    -2.18920
O2593       O  0.00292918  0.82633191  0.94561996    -0.67600
O2594       O  0.50312412  0.81811875  0.02153917    -0.52170
C2595       C  0.00463216  0.83317638  0.98510571     0.71170
O2596       O  0.94667888  0.70553624  0.89789623    -0.60510
O2597       O  0.96382543  0.68171673  0.89333900    -0.52490
C2598       C  0.94270926  0.68197040  0.89291063     0.72970
O2599       O  0.91319291  0.71943386  0.01397089    -0.71910
O2600       O  0.94231802  0.76392366  0.03507846    -0.50580
C2601       C  0.91787726  0.74284764  0.02236261     0.74350
O2602       O  0.99058376  0.76852101  0.84220949    -0.67240
O2603       O  0.00079911  0.73606835  0.84413604    -0.54430
C2604       C  0.99225205  0.75087694  0.82381832     0.72730
Zr2605     Zr  0.00190971  0.78925594  0.91245322     2.77540
O2606       O  0.97590670  0.80278062  0.86296303    -0.97980
O2607       O  0.54388163  0.83092471  0.87476371    -0.78810
Zr2608     Zr  0.93960011  0.71224170  0.97052854     2.70070
O2609       O  0.89995392  0.70665603  0.93027478    -0.80050
O2610       O  0.90558227  0.66094411  0.99438383    -0.99140
Zr2611     Zr  0.00359329  0.72323622  0.92423462     2.21500
Zr2612     Zr  0.48855747  0.77079737  0.03942848     2.11130
O2613       O  0.96661037  0.76321892  0.96801991    -2.47820
O2614       O  0.97413420  0.73876456  0.91458993    -0.79850
O2615       O  0.52354660  0.79694251  0.98237694    -0.72040
O2616       O  0.96874347  0.69687777  0.98391433    -2.33000
O2617       O  0.53215719  0.77481871  0.92069666    -2.29210
O2618       O  0.96050023  0.71986332  0.04259378    -0.73800
H2619       H  0.53115542  0.76415528  0.07855832     0.78200
H2620       H  0.95712777  0.67618483  0.98362058     0.79280
H2621       H  0.95547166  0.77034753  0.96129174     0.81510
H2622       H  0.54477415  0.78410035  0.89556917     0.79120
H2623       H  0.95409547  0.64632270  0.07213137     0.42150
H2624       H  0.90964418  0.65822321  0.02640268     0.41120
H2625       H  0.90679297  0.72652809  0.91682571     0.40800
H2626       H  0.96171990  0.79982207  0.88234349     0.38730
H2627       H  0.55540857  0.84258962  0.89897260     0.41870
H2628       H  0.60454038  0.83428607  0.95680287     0.36650
H2629       H  0.55751377  0.74518446  0.06219367     0.42770
H2630       H  0.52742803  0.70590561  0.12317989     0.39180
H2631       H  0.98889834  0.82403018  0.85541701     0.44100
H2632       H  0.61292308  0.81754195  0.99160770     0.42820
H2633       H  0.49726851  0.67885580  0.13635727     0.42960
H2634       H  0.88780184  0.65857831  0.99456967     0.43320
O2635       O  0.55801554  0.75401759  0.55273691    -0.75550
O2636       O  0.56573286  0.75820613  0.47822130    -0.54460
C2637       C  0.57222836  0.75723358  0.51957576     0.78180
O2638       O  0.92149595  0.67419508  0.53987978    -0.60150
O2639       O  0.90671644  0.70108231  0.51838679    -0.53180
C2640       C  0.90264257  0.67628935  0.52358047     0.70190
O2641       O  0.97614652  0.67527246  0.44842119    -0.74710
O2642       O  0.52194700  0.70773619  0.45532262    -0.55280
C2643       C  0.50000671  0.68111621  0.45601951     0.76190
O2644       O  0.99155736  0.74756914  0.62722744    -0.59860
O2645       O  0.95222360  0.74511014  0.60908361    -0.52980
C2646       C  0.97011557  0.74574612  0.63718688     0.72780
Zr2647     Zr  0.51542341  0.74982632  0.56465021     2.54710
O2648       O  0.50796835  0.70840337  0.61434129    -0.80420
O2649       O  0.55045690  0.78413813  0.61325081    -0.93840
Zr2650     Zr  0.95816609  0.69289253  0.48955854     2.64680
O2651       O  0.95258130  0.65275585  0.54051259    -0.98790
O2652       O  0.92181561  0.65812868  0.44306265    -0.80860
O2653       O  0.50576853  0.72231658  0.50634464    -0.84210
O2654       O  0.96757021  0.71951448  0.54996340    -2.18920
O2655       O  0.00215959  0.82664118  0.52753788    -0.67600
O2656       O  0.95621009  0.79577430  0.52240383    -0.52170
C2657       C  0.97865622  0.82197165  0.52063474     0.71170
O2658       O  0.98822987  0.75772486  0.34036696    -0.60510
O2659       O  0.52482736  0.75537439  0.35944312    -0.52490
C2660       C  0.50791398  0.75632553  0.33070580     0.72970
O2661       O  0.92157488  0.75173548  0.41878504    -0.71910
O2662       O  0.91365666  0.74669327  0.49367498    -0.50580
C2663       C  0.90726699  0.74809805  0.45250549     0.74350
O2664       O  0.55472375  0.82848991  0.42342789    -0.67240
O2665       O  0.57335373  0.80493260  0.43592004    -0.54430
C2666       C  0.57537372  0.82843414  0.43606164     0.72730
Zr2667     Zr  0.52169730  0.81315284  0.47998683     2.77540
O2668       O  0.52580557  0.85429014  0.43490350    -0.97980
O2669       O  0.55946315  0.84623517  0.52653032    -0.78810
Zr2670     Zr  0.96474424  0.75651931  0.40348154     2.70070
O2671       O  0.97473134  0.80065663  0.35930020    -0.80050
O2672       O  0.93396582  0.72962488  0.34401430    -0.99140
Zr2673     Zr  0.52810660  0.75580263  0.44094826     2.21500
Zr2674     Zr  0.95151467  0.74918852  0.52731756     2.11130
O2675       O  0.97432785  0.78347805  0.46199675    -2.47820
O2676       O  0.51267338  0.78627109  0.42007562    -0.79850
O2677       O  0.99962588  0.77942164  0.54445181    -0.72040
O2678       O  0.97969205  0.72603443  0.42418075    -2.33000
O2679       O  0.53691120  0.78323107  0.50104750    -2.29210
O2680       O  0.94251593  0.72229032  0.46705656    -0.73800
H2681       H  0.95912348  0.70727164  0.57777849     0.78200
H2682       H  0.97615180  0.71519245  0.39996651     0.79280
H2683       H  0.96768766  0.79504062  0.45153483     0.81510
H2684       H  0.55603202  0.79504290  0.50967107     0.79120
H2685       H  0.92602821  0.66876969  0.41247831     0.42150
H2686       H  0.92700852  0.70926721  0.35379594     0.41120
H2687       H  0.99517917  0.81373950  0.35678774     0.40800
H2688       H  0.00662239  0.84722794  0.42627368     0.38730
H2689       H  0.55579838  0.83473570  0.55632766     0.41870
H2690       H  0.56682722  0.79815944  0.59376608     0.36650
H2691       H  0.51365664  0.69966732  0.59655628     0.42770
H2692       H  0.97133044  0.66044098  0.55258523     0.39180
H2693       H  0.53139352  0.86826757  0.45612401     0.44100
H2694       H  0.55587132  0.77303037  0.63348113     0.42820
H2695       H  0.94866518  0.63838957  0.52123620     0.42960
H2696       H  0.91774520  0.73007035  0.34492161     0.43320
O2697       O  0.67207510  0.93882014  0.07305701    -0.75630
O2698       O  0.66173801  0.92406225  0.00365129    -0.54460
C2699       C  0.65600685  0.92136174  0.04522771     0.78180
O2700       O  0.74451250  0.57387438  0.03002440    -0.60150
O2701       O  0.78632443  0.58540732  0.05739381    -0.53180
C2702       C  0.76670034  0.58901922  0.05257449     0.70190
O2703       O  0.67063256  0.50544137  0.96246131    -0.74710
O2704       O  0.65781799  0.96430160  0.93601932    -0.55280
C2705       C  0.65246840  0.98192722  0.94520332     0.76190
O2706       O  0.74488363  0.00351793  0.13635962    -0.59860
O2707       O  0.78814258  0.54433080  0.11757957    -0.52980
C2708       C  0.76804755  0.52665909  0.14553905     0.72780
Zr2709     Zr  0.72081762  0.97569062  0.07492349     2.54710
O2710       O  0.69368198  0.96751827  0.13846247    -0.80420
O2711       O  0.72482231  0.93811265  0.11368696    -0.93840
Zr2712     Zr  0.71946596  0.53348830  0.98768837     2.64680
O2713       O  0.69392974  0.54416538  0.02860297    -0.98790
O2714       O  0.72628134  0.56887038  0.92465091    -0.80860
O2715       O  0.69776815  0.98392372  0.01312359    -0.84210
O2716       O  0.74134045  0.52484275  0.05105389    -2.18920
O2717       O  0.81647106  0.50257610  0.02964476    -0.67600
O2718       O  0.83072027  0.54488759  0.05317071    -0.52170
C2719       C  0.83503950  0.52589730  0.04672347     0.71170
O2720       O  0.74298652  0.50877914  0.85124378    -0.60510
O2721       O  0.70050545  0.96695081  0.86992821    -0.52490
C2722       C  0.71968632  0.98608141  0.84108741     0.72970
O2723       O  0.81517256  0.57792709  0.91663402    -0.71910
O2724       O  0.82818377  0.58665248  0.98916849    -0.50580
C2725       C  0.83263916  0.59205941  0.94662768     0.74350
O2726       O  0.74681548  0.95161332  0.93307430    -0.67240
O2727       O  0.70099119  0.92236585  0.93986894    -0.54430
C2728       C  0.72423715  0.92615936  0.93519153     0.72730
Zr2729     Zr  0.76964041  0.97688883  0.99777152     2.77540
O2730       O  0.80208584  0.97422344  0.95899759    -0.97980
O2731       O  0.75809323  0.93401662  0.04825387    -0.78810
Zr2732     Zr  0.76888002  0.53502873  0.91301336     2.70070
O2733       O  0.79916492  0.53513003  0.86426463    -0.80050
O2734       O  0.76709008  0.57119353  0.86297475    -0.99140
Zr2735     Zr  0.69914907  0.96279985  0.95238737     2.21500
Zr2736     Zr  0.78939501  0.54722239  0.03609602     2.11130
O2737       O  0.79133975  0.52660421  0.97533308    -2.47820
O2738       O  0.74699311  0.98551621  0.93601040    -0.79850
O2739       O  0.76777756  0.99677652  0.05930599    -0.72040
O2740       O  0.72168062  0.51342474  0.92785357    -2.33000
O2741       O  0.72219878  0.95400766  0.01600986    -2.29210
O2742       O  0.76707808  0.55631456  0.97204826    -0.73800
H2743       H  0.73941200  0.53245970  0.07545412     0.78200
H2744       H  0.71268877  0.51641762  0.90179732     0.79280
H2745       H  0.81024143  0.53517448  0.96741900     0.81510
H2746       H  0.71282191  0.93348983  0.02480900     0.79120
H2747       H  0.70759520  0.56040606  0.91163072     0.42150
H2748       H  0.77591110  0.58793643  0.87993683     0.41120
H2749       H  0.80060251  0.51952979  0.87910234     0.40800
H2750       H  0.81729113  0.49448001  0.94819613     0.38730
H2751       H  0.77617311  0.93894395  0.06016838     0.41870
H2752       H  0.70571434  0.92013998  0.11427064     0.36650
H2753       H  0.68715513  0.97981875  0.12944221     0.42770
H2754       H  0.68375149  0.52750247  0.05220232     0.39180
H2755       H  0.81057904  0.96757525  0.98216401     0.44100
H2756       H  0.72863993  0.94217315  0.14513602     0.42820
H2757       H  0.67957330  0.54302742  0.00808129     0.42960
H2758       H  0.78053983  0.57765187  0.83895823     0.43320
O2759       O  0.74921142  0.57203747  0.53613118    -0.75550
O2760       O  0.70928286  0.53379521  0.57077744    -0.54460
C2761       C  0.72887686  0.56152607  0.56218701     0.78180
O2762       O  0.73101821  0.51032248  0.34622883    -0.60150
O2763       O  0.77184488  0.51601038  0.36101216    -0.53180
C2764       C  0.75425097  0.51607420  0.33388025     0.70190
O2765       O  0.66558868  0.99544501  0.44247605    -0.74710
O2766       O  0.66351956  0.98799215  0.51849187    -0.55280
C2767       C  0.65431672  0.99090180  0.48034696     0.76190
O2768       O  0.80096177  0.57642990  0.43594334    -0.59860
O2769       O  0.81657900  0.54954595  0.44420630    -0.52980
C2770       C  0.82063912  0.57407819  0.44380516     0.72780
Zr2771     Zr  0.76593419  0.55495413  0.49154048     2.54710
O2772       O  0.76632091  0.59465620  0.44943295    -0.80420
O2773       O  0.80549772  0.58872856  0.53496074    -0.93840
Zr2774     Zr  0.70595292  0.99960471  0.41660627     2.64680
O2775       O  0.70400283  0.53674327  0.37006796    -0.98790
O2776       O  0.66887256  0.96243676  0.37386796    -0.80860
O2777       O  0.71774381  0.52393614  0.48118044    -0.84210
O2778       O  0.75391341  0.53163417  0.42664063    -2.18920
O2779       O  0.80516540  0.99747448  0.54217150    -0.67600
O2780       O  0.80691704  0.50031797  0.46575058    -0.52170
C2781       C  0.81565008  0.99992077  0.50471279     0.71170
O2782       O  0.67526209  0.91812413  0.55542227    -0.60510
O2783       O  0.65533924  0.94021143  0.55269298    -0.52490
C2784       C  0.65362156  0.91725947  0.54914641     0.72970
O2785       O  0.72305451  0.92093816  0.44497004    -0.71910
O2786       O  0.76382695  0.95983339  0.41350075    -0.50580
C2787       C  0.74442324  0.93223775  0.42077904     0.74350
O2788       O  0.74411303  0.98632412  0.63835273    -0.67240
O2789       O  0.70241699  0.97938653  0.62656915    -0.54430
C2790       C  0.72187904  0.98187707  0.65195500     0.72730
Zr2791     Zr  0.76439048  0.99058075  0.56781510     2.77540
O2792       O  0.75875486  0.94786464  0.60973408    -0.97980
O2793       O  0.80210788  0.52116655  0.61698986    -0.78810
Zr2794     Zr  0.70490883  0.93575060  0.49209058     2.70070
O2795       O  0.70490204  0.89514076  0.52869392    -0.80050
O2796       O  0.66438964  0.90192534  0.45049648    -0.99140
Zr2797     Zr  0.70078784  0.98892970  0.54651927     2.21500
Zr2798     Zr  0.77049682  0.00246868  0.43950707     2.11130
O2799       O  0.75278197  0.96643740  0.50337981    -2.47820
O2800       O  0.71638005  0.95876693  0.55776403    -0.79850
O2801       O  0.78281281  0.52642443  0.50446278    -0.72040
O2802       O  0.68862652  0.96486746  0.48059041    -2.33000
O2803       O  0.74917529  0.52066204  0.55683697    -2.29210
O2804       O  0.72236270  0.97043080  0.42726083    -0.73800
H2805       H  0.76120814  0.54539509  0.39989209     0.78200
H2806       H  0.66899619  0.95264566  0.47556744     0.79280
H2807       H  0.76012818  0.95523375  0.50574045     0.81510
H2808       H  0.75346994  0.53044067  0.58278092     0.79120
H2809       H  0.65310110  0.95008543  0.39502362     0.42150
H2810       H  0.66869256  0.91098603  0.41897580     0.41120
H2811       H  0.70983392  0.89896345  0.56014438     0.40800
H2812       H  0.75947703  0.93772897  0.58698144     0.38730
H2813       H  0.80129647  0.53777278  0.61726729     0.41870
H2814       H  0.79895136  0.58239735  0.56637409     0.36650
H2815       H  0.74967269  0.58510500  0.43026845     0.42770
H2816       H  0.72344037  0.55223942  0.36096296     0.39180
H2817       H  0.77621543  0.95550798  0.62670005     0.44100
H2818       H  0.80779536  0.60730371  0.52687065     0.42820
H2819       H  0.69469725  0.52816281  0.34232221     0.42960
H2820       H  0.66496582  0.88506391  0.45162445     0.43320
O2821       O  0.75020278  0.68838879  0.08897813    -0.75550
O2822       O  0.75436887  0.68255190  0.01754513    -0.54460
C2823       C  0.75460763  0.67686330  0.06044565     0.78180
O2824       O  0.66365600  0.73533605  0.01533918    -0.60150
O2825       O  0.69561750  0.78343004  0.01829322    -0.53180
C2826       C  0.67030074  0.76088231  0.01272913     0.70190
O2827       O  0.67868950  0.68581657  0.94444542    -0.74710
O2828       O  0.70177225  0.66792869  0.97079157    -0.55280
C2829       C  0.67846143  0.66444287  0.96141993     0.76190
O2830       O  0.73492954  0.74697262  0.14511868    -0.59860
O2831       O  0.73653431  0.78715163  0.11707130    -0.52980
C2832       C  0.73381860  0.76816499  0.14964426     0.72780
Zr2833     Zr  0.74170256  0.72589916  0.08745834     2.54710
O2834       O  0.70246458  0.68348951  0.12992359    -0.80420
O2835       O  0.77514896  0.73498485  0.14689587    -0.93840
Zr2836     Zr  0.68917110  0.71933899  0.99341776     2.64680
O2837       O  0.65434538  0.67711388  0.04275572    -0.98790
O2838       O  0.65332107  0.71442612  0.94212307    -0.80860
O2839       O  0.71627251  0.70298780  0.02414658    -0.84210
O2840       O  0.71314343  0.74096714  0.05826117    -2.18920
O2841       O  0.80951228  0.81940360  0.05961045    -0.67600
O2842       O  0.78880610  0.84012262  0.03744580    -0.52170
C2843       C  0.81140988  0.84192944  0.04291205     0.71170
O2844       O  0.75408987  0.76075467  0.85814695    -0.60510
O2845       O  0.75085521  0.71944119  0.88537407    -0.52490
C2846       C  0.75329086  0.73841325  0.85302515     0.72970
O2847       O  0.74274778  0.82302990  0.91903284    -0.71910
O2848       O  0.74130473  0.82924943  0.99148594    -0.50580
C2849       C  0.74096465  0.83584583  0.94912730     0.74350
O2850       O  0.82530325  0.76751322  0.99671174    -0.67240
O2851       O  0.79603335  0.72514152  0.96779002    -0.54430
C2852       C  0.82039416  0.74530142  0.98229208     0.72730
Zr2853     Zr  0.80244569  0.78904518  0.00676491     2.77540
O2854       O  0.83285038  0.82414963  0.94556861    -0.97980
O2855       O  0.84533957  0.80423354  0.04621152    -0.78810
Zr2856     Zr  0.74960810  0.78400224  0.91520896     2.70070
O2857       O  0.78871164  0.82566187  0.87145476    -0.80050
O2858       O  0.71610859  0.77710865  0.85702657    -0.99140
Zr2859     Zr  0.74894895  0.71604117  0.96735015     2.21500
Zr2860     Zr  0.74234034  0.79216258  0.03554737     2.11130
O2861       O  0.77513437  0.80553345  0.97804178    -2.47820
O2862       O  0.77727687  0.76727487  0.94322643    -0.79850
O2863       O  0.77097765  0.77659189  0.06443088    -0.72040
O2864       O  0.72177956  0.73344042  0.93683319    -2.33000
O2865       O  0.77382010  0.73930330  0.03124493    -2.29210
O2866       O  0.71738998  0.76964643  0.97150858    -0.73800
H2867       H  0.69976926  0.73601612  0.08031223     0.78200
H2868       H  0.71340428  0.72628843  0.90877791     0.79280
H2869       H  0.78642442  0.82589604  0.96735260     0.81510
H2870       H  0.78549299  0.73365515  0.04406507     0.79120
H2871       H  0.66347140  0.73108430  0.91847066     0.42150
H2872       H  0.70271444  0.77837530  0.87145453     0.41120
H2873       H  0.79882756  0.81847807  0.86221618     0.40800
H2874       H  0.85128406  0.83644532  0.95921572     0.38730
H2875       H  0.83933968  0.79164656  0.07529545     0.41870
H2876       H  0.79068588  0.73744482  0.13220679     0.36650
H2877       H  0.69750945  0.66697669  0.11492382     0.42770
H2878       H  0.64866885  0.68472889  0.06295146     0.39180
H2879       H  0.82685973  0.83680825  0.93606481     0.44100
H2880       H  0.76637200  0.71626159  0.16642190     0.42820
H2881       H  0.66471995  0.67112742  0.06221546     0.42960
H2882       H  0.72641971  0.79501153  0.83558001     0.43320
O2883       O  0.67728618  0.67932510  0.43139395    -0.75550
O2884       O  0.66414777  0.70967916  0.42313344    -0.54460
C2885       C  0.66008172  0.68537994  0.42001785     0.78180
O2886       O  0.72876362  0.73230453  0.64670850    -0.60150
O2887       O  0.76918286  0.73765031  0.63728988    -0.53180
C2888       C  0.75063601  0.73435078  0.66194711     0.70190
O2889       O  0.66929295  0.73862079  0.55799303    -0.74710
O2890       O  0.66805372  0.75014966  0.48239826    -0.55280
C2891       C  0.65949055  0.74507674  0.52278284     0.76190
O2892       O  0.72532478  0.66545831  0.53276421    -0.59860
O2893       O  0.76317616  0.69334618  0.57509578    -0.52980
C2894       C  0.74346966  0.66849341  0.56179096     0.72780
Zr2895     Zr  0.71156449  0.69317027  0.48864562     2.54710
O2896       O  0.67067054  0.64780343  0.52200186    -0.80420
O2897       O  0.71994886  0.66927136  0.43980197    -0.93840
Zr2898     Zr  0.70719928  0.73466553  0.57463950     2.64680
O2899       O  0.66884378  0.68716901  0.60804648    -0.98790
O2900       O  0.70494694  0.76086914  0.62771715    -0.80860
O2901       O  0.69119530  0.71575182  0.50502615    -0.84210
O2902       O  0.72554798  0.70996395  0.55959281    -2.18920
O2903       O  0.81227042  0.76607462  0.44261216    -0.67600
O2904       O  0.81244872  0.75002308  0.51682280    -0.52170
C2905       C  0.82189683  0.75837571  0.47630557     0.71170
O2906       O  0.75496639  0.83317796  0.46424580    -0.60510
O2907       O  0.71671235  0.80422324  0.42342313    -0.52490
C2908       C  0.73660265  0.82935613  0.43493184     0.72970
O2909       O  0.78806122  0.80280150  0.58511316    -0.71910
O2910       O  0.81471830  0.78827346  0.58345018    -0.50580
C2911       C  0.81194446  0.80808351  0.58906259     0.74350
O2912       O  0.75329189  0.77248475  0.35461480    -0.67240
O2913       O  0.71096631  0.76281664  0.36443840    -0.54430
C2914       C  0.73090099  0.76930725  0.33952854     0.72730
Zr2915     Zr  0.77271155  0.76611673  0.42647373     2.77540
O2916       O  0.80975788  0.81386948  0.39160872    -0.97980
O2917       O  0.77466550  0.73933007  0.37412638    -0.78810
Zr2918     Zr  0.76962467  0.80729538  0.51275617     2.70070
O2919       O  0.81509824  0.84634606  0.48110683    -0.80050
O2920       O  0.76755775  0.83986129  0.55221687    -0.99140
Zr2921     Zr  0.70535360  0.75508732  0.44629525     2.21500
Zr2922     Zr  0.77478558  0.74355597  0.55558491     2.11130
O2923       O  0.78911776  0.78374862  0.49690758    -2.47820
O2924       O  0.75407472  0.78988758  0.44271128    -0.79850
O2925       O  0.75992197  0.72679376  0.48383631    -0.72040
O2926       O  0.72111789  0.77393444  0.51655985    -2.33000
O2927       O  0.72468005  0.73126173  0.43029600    -2.29210
O2928       O  0.75540827  0.76798496  0.56953894    -0.73800
H2929       H  0.71992807  0.69425619  0.58331759     0.78200
H2930       H  0.71400465  0.78450077  0.52199467     0.79280
H2931       H  0.80906670  0.79720810  0.49607281     0.81510
H2932       H  0.71853224  0.72386035  0.40185246     0.79120
H2933       H  0.72146538  0.78106562  0.62072384     0.42150
H2934       H  0.74848463  0.83434866  0.54754285     0.41120
H2935       H  0.81110334  0.85411641  0.45244597     0.40800
H2936       H  0.82449656  0.82182587  0.41448510     0.38730
H2937       H  0.77138609  0.72190274  0.39276673     0.41870
H2938       H  0.71983638  0.67815839  0.40913528     0.36650
H2939       H  0.67183580  0.64982600  0.55417756     0.42770
H2940       H  0.67771299  0.67878248  0.62588947     0.39180
H2941       H  0.81729414  0.80999120  0.36821879     0.44100
H2942       H  0.70275086  0.64929030  0.44174585     0.42820
H2943       H  0.66109333  0.69133627  0.63063727     0.42960
H2944       H  0.76801721  0.83347366  0.58438271     0.43320
C2945       C  0.77351880  0.76025578  0.77667739    -0.09420
C2946       C  0.75529106  0.73513580  0.80569740     0.06780
C2947       C  0.73735609  0.70882934  0.78721659    -0.03190
C2948       C  0.73710278  0.70852880  0.74054391    -0.07630
C2949       C  0.75476787  0.73403453  0.71147575     0.05890
C2950       C  0.77330930  0.75992666  0.73045633    -0.02660
Br2951     Br  0.79675871  0.79641329  0.69494908    -0.02350
H2952       H  0.78733759  0.78073591  0.78988375     0.09810
H2953       H  0.72226678  0.68848401  0.72671659     0.07820
Br2954     Br  0.71084259  0.67336631  0.82328255    -0.02780
C2955       C  0.74826090  0.79599059  0.21550980    -0.09420
C2956       C  0.72935327  0.77036664  0.19632197     0.06780
C2957       C  0.70825184  0.74591843  0.22402851    -0.03190
C2958       C  0.70755029  0.74676793  0.27008975    -0.07630
C2959       C  0.72783208  0.77163096  0.28985728     0.05890
C2960       C  0.74776098  0.79665848  0.26179435    -0.02660
Br2961     Br  0.77515817  0.83200705  0.28581524    -0.02350
H2962       H  0.76447674  0.81507809  0.19499521     0.09810
H2963       H  0.69205491  0.72732095  0.29098272     0.07820
Br2964     Br  0.68007361  0.71051382  0.20069109    -0.02780
C2965       C  0.76599510  0.88337248  0.41975351    -0.09420
C2966       C  0.73989639  0.85679677  0.41521981     0.06780
C2967       C  0.71789243  0.85806989  0.39812124    -0.03190
C2968       C  0.72120431  0.88459500  0.39304122    -0.07630
C2969       C  0.74618748  0.91026959  0.40457090     0.05890
C2970       C  0.76923765  0.90973456  0.41484962    -0.02660
Br2971     Br  0.80453784  0.94321050  0.42978044    -0.02350
H2972       H  0.78381332  0.88352873  0.43066915     0.09810
H2973       H  0.70324282  0.88457844  0.38424636     0.07820
Br2974     Br  0.68225435  0.82439013  0.38510147    -0.02780
C2975       C  0.75633822  0.61009525  0.58968304    -0.09420
C2976       C  0.72986134  0.58495057  0.58063256     0.06780
C2977       C  0.70765481  0.58724094  0.57639260    -0.03190
C2978       C  0.71249396  0.61425311  0.57632125    -0.07630
C2979       C  0.73954004  0.64019691  0.57869973     0.05890
C2980       C  0.76135970  0.63739833  0.58829716    -0.02660
Br2981     Br  0.79881382  0.67032613  0.59423553    -0.02350
H2982       H  0.77394415  0.60911071  0.59352352     0.09810
H2983       H  0.69496740  0.61528432  0.57028669     0.07820
Br2984     Br  0.67104419  0.55552868  0.56328161    -0.02780
C2985       C  0.70134631  0.95656368  0.72791680    -0.09420
C2986       C  0.71963899  0.98215780  0.69981277     0.06780
C2987       C  0.73498805  0.50860781  0.71727253    -0.03190
C2988       C  0.73318036  0.50911136  0.76261029    -0.07630
C2989       C  0.71630198  0.98346032  0.79212984     0.05890
C2990       C  0.69950428  0.95700402  0.77381860    -0.02660
Br2991     Br  0.67423322  0.92088499  0.80911669    -0.02350
H2992       H  0.68876274  0.93616675  0.71425040     0.09810
H2993       H  0.74566575  0.52997312  0.77488134     0.07820
Br2994     Br  0.75859128  0.54485965  0.68021633    -0.02780
C2995       C  0.78709908  0.52813632  0.22163849    -0.09420
C2996       C  0.77025554  0.53235443  0.19194294     0.06780
C2997       C  0.75032298  0.53427969  0.20896767    -0.03190
C2998       C  0.74612747  0.52992002  0.25506979    -0.07630
C2999       C  0.76148291  0.52344555  0.28531360     0.05890
C3000       C  0.78303677  0.52367262  0.26792585    -0.02660
Br3001     Br  0.80657375  0.51565007  0.30358583    -0.02350
H3002       H  0.80211328  0.52612066  0.20871239     0.09810
H3003       H  0.73014172  0.53076278  0.26710287     0.07820
Br3004     Br  0.72717721  0.54126238  0.17017163    -0.02780
C3005       C  0.75042352  0.90563726  0.95638525    -0.09420
C3006       C  0.72702971  0.90201108  0.93500661     0.06780
C3007       C  0.70911865  0.87696187  0.91367923    -0.03190
C3008       C  0.71516021  0.85656333  0.91401055    -0.07630
C3009       C  0.73858056  0.86035419  0.93668323     0.05890
C3010       C  0.75624720  0.88557817  0.95764210    -0.02660
Br3011     Br  0.78834266  0.89387709  0.99128987    -0.02350
H3012       H  0.76408950  0.92398626  0.97408709     0.09810
H3013       H  0.70091470  0.83720013  0.89832306     0.07820
Br3014     Br  0.67626302  0.86960890  0.88485762    -0.02780
C3015       C  0.78684762  0.66209720  0.07311145    -0.09420
C3016       C  0.76009888  0.65508920  0.07696040     0.06780
C3017       C  0.73790775  0.62593539  0.08696112    -0.03190
C3018       C  0.74168191  0.60440629  0.08548145    -0.07630
C3019       C  0.76745580  0.61125897  0.07368972     0.05890
C3020       C  0.79070860  0.64024761  0.07249476    -0.02660
Br3021     Br  0.82737168  0.65075001  0.06749736    -0.02350
H3022       H  0.80446948  0.68458835  0.06756790     0.09810
H3023       H  0.72361922  0.58209105  0.08935068     0.07820
Br3024     Br  0.70133069  0.61439785  0.09715068    -0.02780
C3025       C  0.87175359  0.62348111  0.52487003    -0.09420
C3026       C  0.87943936  0.65054625  0.50307008     0.06780
C3027       C  0.87095918  0.65180497  0.45806264    -0.03190
C3028       C  0.85424667  0.62663065  0.43755318    -0.07630
C3029       C  0.84622490  0.59966621  0.45978601     0.05890
C3030       C  0.85611741  0.59857590  0.50351937    -0.02660
Br3031     Br  0.84800475  0.56394253  0.53776004    -0.02350
H3032       H  0.87892687  0.62184917  0.55860492     0.09810
H3033       H  0.84678003  0.62797116  0.40393781     0.07820
Br3034     Br  0.88353779  0.68644504  0.41928784    -0.02780
C3035       C  0.60825952  0.84531858  0.50147352    -0.09420
C3036       C  0.59716413  0.85208677  0.46290014     0.06780
C3037       C  0.60260646  0.87989002  0.45643718    -0.03190
C3038       C  0.61804574  0.89949189  0.48798173    -0.07630
C3039       C  0.63012846  0.89308735  0.52536320     0.05890
C3040       C  0.62460338  0.86531702  0.53200099    -0.02660
Br3041     Br  0.63842423  0.85306821  0.58293643    -0.02350
H3042       H  0.60349782  0.82395914  0.50915601     0.09810
H3043       H  0.62199178  0.92057143  0.48152534     0.07820
Br3044     Br  0.59073299  0.89318150  0.40394321    -0.02780
C3045       C  0.88464082  0.77160304  0.42612973    -0.09420
C3046       C  0.88197244  0.74645191  0.44571015     0.06780
C3047       C  0.85840754  0.72497147  0.47251061    -0.03190
C3048       C  0.83963101  0.72994255  0.48217047    -0.07630
C3049       C  0.84353987  0.75590417  0.46598778     0.05890
C3050       C  0.86552935  0.77651868  0.43616071    -0.02660
Br3051     Br  0.87193390  0.81272255  0.41216321    -0.02350
H3052       H  0.90292918  0.78860912  0.40665268     0.09810
H3053       H  0.82184924  0.71339027  0.50307774     0.07820
Br3054     Br  0.85090347  0.68926868  0.50178526    -0.02780
C3055       C  0.59711597  0.73859328  0.56128635    -0.09420
C3056       C  0.59747966  0.75884214  0.52844379     0.06780
C3057       C  0.62014117  0.77659241  0.49866490    -0.03190
C3058       C  0.64034976  0.77208730  0.49937977    -0.07630
C3059       C  0.63857942  0.74987388  0.52863858     0.05890
C3060       C  0.61759539  0.73394294  0.56167239    -0.02660
Br3061     Br  0.61424477  0.70408549  0.60517064    -0.02350
H3062       H  0.57983527  0.72487584  0.58438455     0.09810
H3063       H  0.65729932  0.78565229  0.47565012     0.07820
Br3064     Br  0.62470184  0.80635669  0.45367939    -0.02780
C3065       C  0.98545008  0.77117182  0.74915459    -0.09420
C3066       C  0.98310607  0.74764361  0.77631314     0.06780
C3067       C  0.97088285  0.72160208  0.75761558    -0.03190
C3068       C  0.96298708  0.72026004  0.71267881    -0.07630
C3069       C  0.96720630  0.74438709  0.68522497     0.05890
C3070       C  0.97794134  0.76980110  0.70396542    -0.02660
Br3071     Br  0.48571005  0.80414936  0.66773265    -0.02350
H3072       H  0.49439230  0.79129192  0.76251793     0.09810
H3073       H  0.95537960  0.70082847  0.69810511     0.07820
Br3074     Br  0.96469137  0.68700003  0.78978796    -0.02780
C3075       C  0.50130005  0.72779027  0.22148439    -0.09420
C3076       C  0.49897331  0.74715106  0.19040198     0.06780
C3077       C  0.50405739  0.77188531  0.20602387    -0.03190
C3078       C  0.50908501  0.77534650  0.25139893    -0.07630
C3079       C  0.50979100  0.75518136  0.28258089     0.05890
C3080       C  0.50656039  0.73158851  0.26707344    -0.02660
Br3081     Br  0.50670686  0.70264691  0.30737433    -0.02350
H3082       H  0.49812781  0.70904038  0.21065904     0.09810
H3083       H  0.51161548  0.79365184  0.26281914     0.07820
Br3084     Br  0.50502984  0.80262541  0.16865005    -0.02780
C3085       C  0.88039498  0.60895848  0.93715561    -0.09420
C3086       C  0.86047500  0.61452428  0.93010621     0.06780
C3087       C  0.86636006  0.63908678  0.90177560    -0.03190
C3088       C  0.89302883  0.65928453  0.88465907    -0.07630
C3089       C  0.91416278  0.65565405  0.89639173     0.05890
C3090       C  0.90730615  0.62936194  0.92079604    -0.02660
Br3091     Br  0.93351506  0.62048211  0.93567702    -0.02350
H3092       H  0.87494264  0.58866258  0.95569711     0.09810
H3093       H  0.89778291  0.67898346  0.86474374     0.07820
Br3094     Br  0.83917798  0.64673473  0.88820028    -0.02780
C3095       C  0.58313654  0.86903583  0.09137072    -0.09420
C3096       C  0.57896880  0.84310931  0.08643572     0.06780
C3097       C  0.60247088  0.84356218  0.08282171    -0.03190
C3098       C  0.62710418  0.86915641  0.06674986    -0.07630
C3099       C  0.63005513  0.89512154  0.06378174     0.05890
C3100       C  0.60960621  0.89502072  0.08408456    -0.02660
Br3101     Br  0.61759820  0.92732046  0.10940792    -0.02350
H3102       H  0.56589204  0.86920096  0.09898763     0.09810
H3103       H  0.64426519  0.86895837  0.05862752     0.07820
Br3104     Br  0.60184649  0.81022756  0.10141788    -0.02780
C3105       C  0.87169165  0.76985469  0.99478485    -0.09420
C3106       C  0.84535396  0.74427406  0.98641897     0.06780
C3107       C  0.84409699  0.71909462  0.98746526    -0.03190
C3108       C  0.86735553  0.71920558  0.00147761    -0.07630
C3109       C  0.89325892  0.74438952  0.01293957     0.05890
C3110       C  0.89523138  0.77024713  0.00678932    -0.02660
Br3111     Br  0.92963672  0.80737326  0.01000668    -0.02350
H3112       H  0.87428644  0.79024238  0.99174994     0.09810
H3113       H  0.86521929  0.69926073  0.00165559     0.07820
Br3114     Br  0.81212906  0.68457075  0.96707643    -0.02780
C3115       C  0.59625224  0.73847876  0.99366319    -0.09420
C3116       C  0.59845283  0.75481790  0.95252284     0.06780
C3117       C  0.62519728  0.77512197  0.93381397    -0.03190
C3118       C  0.64884604  0.77902242  0.95603836    -0.07630
C3119       C  0.64675793  0.76291916  0.99751851     0.05890
C3120       C  0.61975661  0.74216298  0.01577137    -0.02660
Br3121     Br  0.61376985  0.71813946  0.07140682    -0.02350
H3122       H  0.57617496  0.72339947  0.00961863     0.09810
H3123       H  0.66873149  0.79333095  0.93943797     0.07820
Br3124     Br  0.62965228  0.79577544  0.87555339    -0.02780
C3125       C  0.88196225  0.87601720  0.61833833    -0.09420
C3126       C  0.88050216  0.89773811  0.59256637     0.06780
C3127       C  0.85551569  0.88920762  0.57076660    -0.03190
C3128       C  0.83311872  0.86023578  0.57500599    -0.07630
C3129       C  0.83554595  0.83828996  0.59540819     0.05890
C3130       C  0.86015414  0.84642631  0.61849834    -0.02660
Br3131     Br  0.86554645  0.81840511  0.64877034    -0.02350
H3132       H  0.90143918  0.88191097  0.63369031     0.09810
H3133       H  0.81460415  0.85473551  0.55714233     0.07820
Br3134     Br  0.85284116  0.91366674  0.52354894    -0.02780
C3135       C  0.62709185  0.64861083  0.37032697    -0.09420
C3136       C  0.63277797  0.65969100  0.41139081     0.06780
C3137       C  0.61925467  0.64040833  0.45005982    -0.03190
C3138       C  0.60393086  0.61085123  0.44867920    -0.07630
C3139       C  0.59574866  0.59957133  0.40788149     0.05890
C3140       C  0.60709729  0.61880481  0.36809580    -0.02660
Br3141     Br  0.59587672  0.60493238  0.31103002    -0.02350
H3142       H  0.63825264  0.66298238  0.34043166     0.09810
H3143       H  0.59549752  0.59637779  0.47939434     0.07820
Br3144     Br  0.62236438  0.65392380  0.50610601    -0.02780
C3145       C  0.86151525  0.52325570  0.47129347    -0.09420
C3146       C  0.84117043  0.00273555  0.50431476     0.06780
C3147       C  0.84364592  0.98178382  0.52857583    -0.03190
C3148       C  0.86524879  0.98097887  0.51877073    -0.07630
C3149       C  0.88404276  0.49981895  0.48370244     0.05890
C3150       C  0.88235415  0.52152774  0.46005017    -0.02660
Br3151     Br  0.90833205  0.54992503  0.41440535    -0.02350
H3152       H  0.85962429  0.53959492  0.45249223     0.09810
H3153       H  0.86789341  0.96582834  0.53957999     0.07820
Br3154     Br  0.81715844  0.95181496  0.57208707    -0.02780
C3155       C  0.62226417  0.49058851  0.52606131    -0.09420
C3156       C  0.62929777  0.98941400  0.48332355     0.06780
C3157       C  0.61226128  0.98676510  0.44676194    -0.03190
C3158       C  0.59010323  0.98752372  0.45300280    -0.07630
C3159       C  0.58493058  0.49154442  0.49484944     0.05890
C3160       C  0.60061981  0.49198235  0.53209249    -0.02660
Br3161     Br  0.59546242  0.49636701  0.59139943    -0.02350
H3162       H  0.63427768  0.49154568  0.55557600     0.09810
H3163       H  0.57714536  0.98557795  0.42433737     0.07820
Br3164     Br  0.61728962  0.98158736  0.38815226    -0.02780
C3165       C  0.96363516  0.84761484  0.46536162    -0.09420
C3166       C  0.97907557  0.84814595  0.50362982     0.06780
C3167       C  0.99967574  0.87552851  0.51773149    -0.03190
C3168       C  0.50458158  0.90114138  0.49390332    -0.07630
C3169       C  0.98896182  0.90057565  0.45598431     0.05890
C3170       C  0.96841441  0.87328966  0.44180742    -0.02660
Br3171     Br  0.94730610  0.87029642  0.38870850    -0.02350
H3172       H  0.94861460  0.82728182  0.45241516     0.09810
H3173       H  0.51968808  0.92149386  0.50674322     0.07820
Br3174     Br  0.52095425  0.87922295  0.57101176    -0.02780
C3175       C  0.97683860  0.60309362  0.46922203    -0.09420
C3176       C  0.98410026  0.59892016  0.51367581     0.06780
C3177       C  0.99965604  0.62344823  0.53695523    -0.03190
C3178       C  0.00728970  0.65092382  0.51625986    -0.07630
C3179       C  0.99989889  0.65502570  0.47173564     0.05890
C3180       C  0.48443982  0.63045415  0.44850468    -0.02660
Br3181     Br  0.47409010  0.63347937  0.38724966    -0.02350
H3182       H  0.46661036  0.58528261  0.44947753     0.09810
H3183       H  0.01793182  0.66886443  0.53583043     0.07820
Br3184     Br  0.01022952  0.61998881  0.59792175    -0.02780
C3185       C  0.50190857  0.51745962  0.75930378    -0.09420
C3186       C  0.98167713  0.99218982  0.78591471     0.06780
C3187       C  0.95961972  0.96831101  0.76565114    -0.03190
C3188       C  0.95877925  0.96986847  0.71908264    -0.07630
C3189       C  0.97960946  0.99494939  0.69302671     0.05890
C3190       C  0.50096682  0.51897536  0.71312352    -0.02660
Br3191     Br  0.52912691  0.55441173  0.67879318    -0.02350
H3192       H  0.51874864  0.53606631  0.77455655     0.09810
H3193       H  0.94216627  0.95143946  0.70322673     0.07820
Br3194     Br  0.92966440  0.93398439  0.79947226    -0.02780
C3195       C  0.97690699  0.97873636  0.22032129    -0.09420
C3196       C  0.99588002  0.50496317  0.19403453     0.06780
C3197       C  0.51507249  0.53012307  0.21437942    -0.03190
C3198       C  0.51394532  0.52882654  0.26043968    -0.07630
C3199       C  0.49417921  0.50280859  0.28585181     0.05890
C3200       C  0.97610995  0.97750770  0.26617124    -0.02660
Br3201     Br  0.95048832  0.94088752  0.30081856    -0.02350
H3202       H  0.96235808  0.95915892  0.20513163     0.09810
H3203       H  0.52838262  0.54807049  0.27647543     0.07820
Br3204     Br  0.54403747  0.56610833  0.18198695    -0.02780
C3205       C  0.88605652  0.88473465  0.00239139    -0.09420
C3206       C  0.88594690  0.89946233  0.96072095     0.06780
C3207       C  0.86122351  0.89680076  0.94825393    -0.03190
C3208       C  0.83770030  0.87984922  0.97644834    -0.07630
C3209       C  0.83808339  0.86582256  0.01863542     0.05890
C3210       C  0.86332161  0.86977788  0.03199376    -0.02660
Br3211     Br  0.86893155  0.85776544  0.09227728    -0.02350
H3212       H  0.90436427  0.88601803  0.01352567     0.09810
H3213       H  0.81862200  0.87628311  0.96378255     0.07820
Br3214     Br  0.85763899  0.91382126  0.89090842    -0.02780
C3215       C  0.64902037  0.62170632  0.01896169    -0.09420
C3216       C  0.65077740  0.63848720  0.97882625     0.06780
C3217       C  0.62606825  0.63512512  0.96240636    -0.03190
C3218       C  0.60143926  0.61733661  0.98734349    -0.07630
C3219       C  0.59971943  0.60079276  0.02765904     0.05890
C3220       C  0.62390916  0.60280147  0.04289385    -0.02660
Br3221     Br  0.62400058  0.58029593  0.09662264    -0.02350
H3222       H  0.66748697  0.62415640  0.03274063     0.09810
H3223       H  0.58292455  0.61473047  0.97321100     0.07820
Br3224     Br  0.62369734  0.65287894  0.90461409    -0.02780
C3225       C  0.86053478  0.00328955  0.07003457    -0.09420
C3226       C  0.86239971  0.52900848  0.05822550     0.06780
C3227       C  0.88985003  0.55487368  0.05190388    -0.03190
C3228       C  0.91333621  0.55396389  0.05048055    -0.07630
C3229       C  0.91062180  0.52750551  0.05824936     0.05890
C3230       C  0.88370639  0.00245720  0.07116961    -0.02660
Br3231     Br  0.87680939  0.96545022  0.09022661    -0.02350
H3232       H  0.84037956  0.98301495  0.07744647     0.09810
H3233       H  0.93347352  0.57389656  0.04160117     0.07820
Br3234     Br  0.89633026  0.59180031  0.04569608    -0.02780
C3235       C  0.61010242  0.97427767  0.89823507    -0.09420
C3236       C  0.62312319  0.97445737  0.94001860     0.06780
C3237       C  0.60918492  0.97158848  0.97804844    -0.03190
C3238       C  0.58322576  0.96686717  0.97511225    -0.07630
C3239       C  0.57107329  0.96894869  0.93408956     0.05890
C3240       C  0.58508837  0.97272844  0.89506282    -0.02660
Br3241     Br  0.57225032  0.97859002  0.83716180    -0.02350
H3242       H  0.62045131  0.97766865  0.86781287     0.09810
H3243       H  0.57401498  0.46515164  0.00575699     0.07820
Br3244     Br  0.62680599  0.47956050  0.03480886    -0.02780
C3245       C  0.99749879  0.85835496  0.03426543    -0.09420
C3246       C  0.00546604  0.85818427  0.99163555     0.06780
C3247       C  0.50974189  0.87914730  0.95645452    -0.03190
C3248       C  0.50210525  0.89685481  0.96247288    -0.07630
C3249       C  0.49187157  0.89518767  0.00389013     0.05890
C3250       C  0.99036142  0.87640760  0.04039934    -0.02660
Br3251     Br  0.97441878  0.87094258  0.09682452    -0.02350
H3252       H  0.99438143  0.84270649  0.06253305     0.09810
H3253       H  0.50336630  0.91128127  0.93393313     0.07820
Br3254     Br  0.52619964  0.88521081  0.90022009    -0.02780
C3255       C  0.02965697  0.63883154  0.92894543    -0.09420
C3256       C  0.03812351  0.62874184  0.96659941     0.06780
C3257       C  0.54652241  0.64300572  0.00501569    -0.03190
C3258       C  0.53851159  0.66058567  0.00992101    -0.07630
C3259       C  0.02370728  0.66521665  0.97581412     0.05890
C3260       C  0.02210382  0.65690398  0.93308273    -0.02660
Br3261     Br  0.00782760  0.66648762  0.87935371    -0.02350
H3262       H  0.02476814  0.62926363  0.89822256     0.09810
H3263       H  0.54212796  0.66882790  0.04156651     0.07820
Br3264     Br  0.56486411  0.63579912  0.05444409    -0.02780
loop_ 
_geom_bond_atom_site_label_1 
_geom_bond_atom_site_label_2 
_geom_bond_distance 
_geom_bond_site_symmetry_2 
_ccdc_geom_bond_type 
O1          Zr13   2.374   1_554  S
O1            C3   1.258       .  A
O2        Zr1671   2.523   1_455  S
O2            C3   1.298       .  A
C3          C771   1.492       .  S
O4          Zr16   2.422   1_655  S
O4          C822   1.285   1_545  A
O5          Zr40   2.401       .  S
O5            C6   1.284       .  A
C6          O820   1.285       .  A
C6         C2370   1.458       .  S
O7          Zr16   2.452       .  S
O7         C1641   1.291       .  A
O8          Zr39   2.352       .  S
O8            C9   1.278   1_554  A
C9         O1639   1.291       .  A
C9          C808   1.453       .  S
O10         Zr13   2.389   1_565  S
O10         C828   1.277       .  A
O11         Zr40   2.584   1_455  S
O11          C12   1.316       .  A
C12         O826   1.277       .  A
C12         C791   1.533       .  S
Zr13         O14   2.434       .  S
Zr13         O15   2.441   1_556  S
Zr13         O19   2.365       .  S
Zr13         O20   2.376       .  S
Zr13         O45   2.385   1_556  S
Zr13        O859   2.334   1_546  S
O14          H57   0.990       .  S
O15          H56   0.989       .  S
O15          H60   0.990   1_545  S
Zr16         O17   2.436       .  S
Zr16       O1650   2.436   1_455  S
Zr16         O20   2.383       .  S
Zr16         O19   2.342       .  S
Zr16       O1676   2.373   1_455  S
Zr16       O2494   2.363   1_445  S
O17          H58   0.990       .  S
O17          H61   0.990       .  S
O18       Zr1648   2.436       .  S
O18          H51   0.990       .  S
O19       Zr1671   2.389   1_456  S
O20        Zr856   2.386   1_445  S
O20          H47   0.966       .  S
O21         Zr33   2.463       .  S
O21        C1655   1.291       .  A
O22         Zr40   2.343       .  S
O22          C23   1.269   1_556  A
C23        O1653   1.291       .  A
C23         C801   1.445       .  S
O24         Zr36   2.421   1_554  S
O24         C842   1.282       .  A
O25         Zr39   2.583       .  S
O25          C26   1.316       .  A
C26         O840   1.282       .  A
C26         C781   1.546       .  S
O27         Zr36   2.406       .  S
O27          C29   1.268       .  A
O28       Zr1672   2.508       .  S
O28          C29   1.292       .  A
C29         C758   1.509       .  S
O30         Zr33   2.419       .  S
O30         C848   1.285       .  A
O31         Zr39   2.389       .  S
O31          C32   1.282       .  A
C32         O846   1.285   1_545  A
C32         C748   1.451       .  S
Zr33         O34   2.433       .  S
Zr33       O1667   2.434       .  S
Zr33         O41   2.322       .  S
Zr33         O42   2.392       .  S
Zr33       O2493   2.348       .  S
Zr33       O1675   2.364       .  S
O34          H54   0.990       .  S
O34          H59   0.990       .  S
O35       Zr1665   2.434   1_455  S
O35          H55   0.990       .  S
Zr36         O37   2.431   1_556  S
Zr36         O38   2.436       .  S
Zr36         O42   2.369   1_556  S
Zr36         O41   2.381   1_556  S
Zr36         O46   2.385       .  S
Zr36        O860   2.365       .  S
O37          H53   0.990       .  S
O38          H52   0.990       .  S
O38          H62   0.990       .  S
Zr39       O1634   2.523       .  S
Zr39         O44   2.382   1_554  S
Zr39       O1651   2.389   1_554  S
Zr39        O858   2.385   1_545  S
Zr39       O1677   2.416       .  S
Zr40       O1660   2.508       .  S
Zr40         O43   2.378   1_656  S
Zr40        O836   2.386   1_655  S
Zr40       O1673   2.418   1_556  S
Zr40       O1678   2.410       .  S
O41       Zr1672   2.419   1_554  S
O41          H49   0.952       .  S
O42        Zr855   2.385       .  S
O43        Zr829   2.333   1_554  S
O43       Zr1665   2.364   1_455  S
O44       Zr1648   2.373       .  S
O44        Zr852   2.365   1_545  S
O44          H48   0.966       .  S
O45       Zr2481   2.348   1_445  S
O45       Zr1671   2.416   1_455  S
O45          H50   0.964       .  S
O46       Zr2464   2.363       .  S
O46       Zr1672   2.410       .  S
O63         Zr75   2.409       .  S
O63        C1697   1.272       .  A
O64        Zr917   2.511       .  S
O64          C65   1.297   1_455  A
C65        O1695   1.272       .  A
C65        C2353   1.503       .  S
O66         Zr78   2.453       .  S
O66          C68   1.290   1_545  A
O67        Zr102   2.302       .  S
O67          C68   1.269       .  A
C68         C701   1.435       .  S
O69         Zr78   2.438       .  S
O69        C1703   1.288       .  A
O70        Zr101   2.367   1_545  S
O70          C71   1.278   1_455  A
C71        O1701   1.288       .  A
C71         C751   1.432       .  S
O72         Zr75   2.353       .  S
O72          C74   1.271       .  A
O73        Zr918   2.500       .  S
O73          C74   1.301       .  A
C74         C678   1.471       .  S
Zr75         O76   2.435       .  S
Zr75         O77   2.437       .  S
Zr75         O81   2.353       .  S
Zr75         O82   2.358       .  S
Zr75        O105   2.374       .  S
Zr75       O1739   2.349       .  S
O76         H119   0.990       .  S
O77         H118   0.989       .  S
O77         H122   0.990       .  S
Zr78         O80   2.437       .  S
Zr78        O895   2.434   1_545  S
Zr78        O108   2.366       .  S
Zr78        O898   2.359   1_545  S
Zr78        O897   2.376   1_545  S
Zr78       O1738   2.348       .  S
O79        Zr894   2.434       .  S
O79         H120   0.990       .  S
O79         H123   0.990       .  S
O80         H113   0.990       .  S
O81        Zr894   2.376       .  S
O81       Zr2549   2.384       .  S
O82        Zr894   2.359       .  S
O82        Zr918   2.391       .  S
O82         H109   0.966       .  S
O83       Zr2543   2.434       .  S
O83          C85   1.287       .  A
O84        Zr918   2.390       .  S
O84          C85   1.281       .  A
C85         C741   1.446       .  S
O86         Zr98   2.389       .  S
O86          C88   1.268       .  A
O87        Zr101   2.482   1_545  S
O87          C88   1.292       .  A
C88         C691   1.460       .  S
O89       Zr1730   2.386       .  S
O89          C91   1.265       .  A
O90        Zr102   2.540   1_545  S
O90          C91   1.302       .  A
C91         C728   1.501       .  S
O92         Zr95   2.448       .  S
O92          C94   1.288       .  A
O93        Zr101   2.310   1_545  S
O93          C94   1.268   1_545  A
C94         C711   1.447       .  S
Zr95       O2531   2.434   1_455  S
Zr95         O96   2.434   1_565  S
Zr95        O913   2.434       .  S
Zr95        O104   2.370   1_565  S
Zr95       O1735   2.369   1_565  S
Zr95        O923   2.350       .  S
Zr95       O2553   2.361   1_455  S
O96         H116   0.989       .  S
O96         H121   0.990       .  S
O97        Zr911   2.434       .  S
O97        H1749   0.990   1_455  S
Zr98       O1721   2.386       .  S
Zr98         O99   2.431       .  S
Zr98        O100   2.438       .  S
Zr98        O104   2.359       .  S
Zr98        O106   2.380       .  S
Zr98       O1735   2.364       .  S
Zr98       O1740   2.364   1_455  S
O99         H115   0.989       .  S
O100        H124   0.990       .  S
O100       H1746   0.989       .  S
Zr101       O880   2.511       .  S
Zr101       O104   2.389   1_565  S
Zr101       O106   2.380   1_565  S
Zr101      O2529   2.384   1_455  S
Zr101       O923   2.387       .  S
Zr102       O889   2.500       .  S
Zr102       O900   2.390       .  S
Zr102       O103   2.376   1_565  S
Zr102       O108   2.372   1_565  S
Zr102       O898   2.391       .  S
Zr102       O921   2.375       .  S
O103      Zr1727   2.369   1_545  S
O103      Zr1730   2.364       .  S
O103        H111   0.966       .  S
O105      Zr2543   2.361       .  S
O105       Zr918   2.375       .  S
O106      Zr1710   2.348   1_455  S
O106        H110   0.964       .  S
O107      Zr1707   2.349   1_455  S
O107       Zr911   2.349       .  S
O107       Zr917   2.387       .  S
O107        H112   0.963       .  S
O108      Zr1730   2.364       .  S
H114       O1732   0.989       .  S
H117       O1729   0.990       .  S
O125       Zr137   2.405       .  S
O125        C127   1.271       .  A
O126      Zr1795   2.514       .  S
O126        C127   1.297       .  A
C127        C668   1.506       .  S
O128       Zr140   2.503       .  S
O128        C130   1.298       .  A
O129       Zr164   2.404       .  S
O129        C130   1.283       .  A
C130        C628   1.503       .  S
O131      Zr1772   2.463       .  S
O131        C133   1.290   1_554  A
O132       Zr163   2.353       .  S
O132        C133   1.261       .  A
C133        C811   1.462       .  S
O134       Zr137   2.401   1_554  S
O134        C136   1.276       .  A
O135       Zr164   2.452   1_455  S
O135        C136   1.285       .  A
C136        C648   1.461       .  S
Zr137       O138   2.437   1_556  S
Zr137       O139   2.438       .  S
Zr137       O143   2.333       .  S
Zr137       O144   2.376   1_556  S
Zr137       O167   2.360       .  S
Zr137       O169   2.387       .  S
O138        H181   0.989       .  S
O139        H180   0.990       .  S
O139        H184   0.990       .  S
Zr140      O1763   2.463   1_655  S
Zr140       O141   2.438   1_655  S
Zr140      O1774   2.431       .  S
Zr140       O144   2.358   1_655  S
Zr140       O143   2.386   1_654  S
Zr140      O1800   2.387   1_554  S
Zr140      O1802   2.383       .  S
O141        H182   0.990       .  S
O141        H185   0.990   1_455  S
O142      Zr1772   2.431       .  S
O142        H175   0.990       .  S
O143      Zr1795   2.375       .  S
O144       Zr164   2.406   1_455  S
O144        H171   0.965       .  S
O145       Zr157   2.470       .  S
O145        C147   1.293       .  A
O146       Zr164   2.310   1_455  S
O146       C1779   1.266   1_554  A
C147       O1778   1.266   1_556  A
C147        C798   1.460       .  S
O148       Zr160   2.405       .  S
O148        C150   1.268       .  A
O149       Zr163   2.418       .  S
O149        C150   1.272       .  A
C150        C641   1.468       .  S
O151       Zr160   2.391   1_554  S
O151        C153   1.272       .  A
O152      Zr1796   2.547       .  S
O152        C153   1.308       .  A
C153        C661   1.527       .  S
O154       Zr157   2.447       .  S
O154        C156   1.290       .  A
O155       Zr163   2.444       .  S
O155        C156   1.292       .  A
C156        C618   1.491       .  S
Zr157       O158   2.436       .  S
Zr157      O1791   2.434       .  S
Zr157       O165   2.376       .  S
Zr157       O166   2.346       .  S
Zr157      O1801   2.383       .  S
Zr157      O1799   2.340       .  S
O158        H178   0.990       .  S
O158        H183   0.990       .  S
O159      Zr1789   2.434       .  S
O159        H179   0.990       .  S
Zr160       O161   2.434       .  S
Zr160       O162   2.432       .  S
Zr160       O166   2.358       .  S
Zr160       O165   2.370       .  S
Zr160       O170   2.383   1_556  S
Zr160       O168   2.364       .  S
O161        H177   0.990       .  S
O162        H176   0.989   1_556  S
O162        H186   0.990       .  S
Zr163      O1758   2.514       .  S
Zr163       O166   2.387       .  S
Zr163       O168   2.448       .  S
Zr163      O1775   2.375       .  S
Zr163      O1801   2.394       .  S
Zr164      O1784   2.547       .  S
Zr164       O167   2.397   1_654  S
Zr164      O1797   2.386   1_554  S
Zr164      O1802   2.367       .  S
O165      Zr1796   2.386   1_556  S
O165        H173   0.964       .  S
O167      Zr1789   2.340       .  S
O168      Zr1772   2.387   1_556  S
O168        H172   0.966       .  S
O169      Zr1789   2.383       .  S
O169      Zr1795   2.394       .  S
O169        H174   0.966       .  S
O170      Zr1772   2.383       .  S
O170      Zr1796   2.367       .  S
O187       Zr199   2.469       .  S
O187        C189   1.293       .  A
O188       Zr225   2.365       .  S
O188        C189   1.280       .  A
C189        C608   1.461       .  S
O190       Zr202   2.363       .  S
O190        C192   1.255       .  A
O191       Zr226   2.506       .  S
O191        C192   1.288       .  A
C192        C578   1.489       .  S
O193       Zr202   2.382       .  S
O193       C1827   1.266       .  A
O194       Zr225   2.546       .  S
O194        C195   1.303       .  A
C195       O1825   1.266   1_455  A
C195       C2363   1.505   1_455  S
O196      Zr1831   2.414       .  S
O196        C198   1.284       .  A
O197       Zr226   2.448       .  S
O197        C198   1.293       .  A
C198        C621   1.464       .  S
Zr199      O1828   2.414   1_455  S
Zr199       O200   2.435       .  S
Zr199       O201   2.436       .  S
Zr199       O205   2.362       .  S
Zr199       O231   2.332       .  S
Zr199      O1838   2.357   1_455  S
Zr199      O1861   2.383   1_455  S
O200        H243   0.990       .  S
O201        H242   0.990       .  S
O201        H246   0.990       .  S
Zr202       O203   2.436       .  S
Zr202       O204   2.432       .  S
Zr202       O206   2.385       .  S
Zr202       O230   2.367       .  S
Zr202       O232   2.374       .  S
Zr202      O1837   2.356       .  S
O203        H244   0.989       .  S
O203        H247   0.990       .  S
O204        H237   0.990       .  S
O205       Zr225   2.382       .  S
O205      Zr1834   2.356   1_455  S
O206       Zr226   2.408       .  S
O206      Zr1831   2.357       .  S
O206        H233   0.966       .  S
O207      Zr1851   2.402       .  S
O207        C209   1.270       .  A
O208       Zr226   2.517       .  S
O208        C209   1.297       .  A
C209        C718   1.506       .  S
O210       Zr222   2.439       .  S
O210       C1844   1.289       .  A
O211       Zr225   2.460       .  S
O211        C212   1.296       .  A
C212       O1842   1.289   1_455  A
C212        C631   1.485       .  S
O213       Zr222   2.510       .  S
O213        C215   1.302       .  A
O214       Zr226   2.333       .  S
O214        C215   1.275       .  A
C215        C598   1.457       .  S
O216       Zr219   2.384       .  S
O216        C218   1.263       .  A
O217       Zr225   2.503       .  S
O217        C218   1.291       .  A
C218        C588   1.509       .  S
Zr219      O1839   2.402       .  S
Zr219       O220   2.436       .  S
Zr219       O221   2.431       .  S
Zr219       O228   2.387       .  S
Zr219       O231   2.375       .  S
Zr219      O1859   2.354   1_455  S
Zr219      O1861   2.363   1_455  S
O220        H245   0.990       .  S
O220       H1872   0.989       .  S
O221        H241   0.990       .  S
Zr222       O223   2.435       .  S
Zr222       O224   2.437       .  S
Zr222       O227   2.347       .  S
Zr222       O232   2.355       .  S
Zr222       O230   2.391       .  S
Zr222      O1860   2.370       .  S
O223        H239   0.990       .  S
O224        H238   0.990       .  S
O224        H248   0.989       .  S
Zr225       O228   2.413       .  S
Zr225       O231   2.415       .  S
Zr225      O1862   2.394   1_455  S
Zr226       O227   2.401       .  S
Zr226       O229   2.384       .  S
Zr226       O232   2.397       .  S
O227      Zr1851   2.354       .  S
O227        H235   0.965       .  S
O228      Zr1854   2.370   1_455  S
O229      Zr1831   2.383       .  S
O229      Zr1851   2.363       .  S
O230      Zr1857   2.394       .  S
O230        H234   0.966       .  S
O231        H236   0.960       .  S
H240       O1852   0.989       .  S
O249       Zr261   2.390       .  S
O249        C251   1.275       .  A
O250       Zr287   2.459   1_554  S
O250        C251   1.295       .  A
C251        C651   1.461       .  S
O252       Zr264   2.405   1_554  S
O252        C254   1.283       .  A
O253       Zr288   2.502       .  S
O253        C254   1.302       .  A
C254        C571   1.497       .  S
O255       Zr264   2.478       .  S
O255       C1073   1.294   1_545  A
O256       Zr287   2.529       .  S
O256        C257   1.306       .  A
C257       O1071   1.294       .  A
C257        C788   1.540       .  S
O258       Zr261   2.415       .  S
O258       C1076   1.281       .  A
O259       Zr288   2.450       .  S
O259        C260   1.291       .  A
C260       O1074   1.281       .  A
C260        C548   1.469       .  S
Zr261       O262   2.434       .  S
Zr261       O263   2.434       .  S
Zr261       O267   2.381       .  S
Zr261       O291   2.370       .  S
Zr261       O293   2.366       .  S
Zr261      O1084   2.344       .  S
O262        H305   0.991       .  S
O263        H304   0.990       .  S
O263        H308   0.990       .  S
Zr264       O265   2.437   1_556  S
Zr264       O266   2.435       .  S
Zr264       O268   2.381   1_556  S
Zr264       O292   2.349       .  S
Zr264       O294   2.385       .  S
Zr264      O1083   2.362   1_546  S
O265        H306   0.989       .  S
O265        H309   0.990       .  S
O266        H299   0.990       .  S
O267       Zr287   2.391   1_554  S
O267      Zr1080   2.362   1_554  S
O268       Zr288   2.409       .  S
O268      Zr1077   2.344   1_545  S
O268        H295   0.964       .  S
O269      Zr1097   2.456   1_544  S
O269        C271   1.289       .  A
O270       Zr288   2.559       .  S
O270        C271   1.311       .  A
C271        C778   1.551       .  S
O272       Zr284   2.405       .  S
O272       C1090   1.283   1_545  A
O273       Zr287   2.474       .  S
O273        C274   1.296       .  A
C274       O1088   1.283       .  A
C274        C541   1.496       .  S
O275       Zr284   2.397       .  S
O275        C277   1.279       .  A
O276       Zr288   2.435   1_556  S
O276        C277   1.290       .  A
C277        C638   1.450       .  S
O278       Zr281   2.426       .  S
O278        C280   1.277       .  A
O279       Zr287   2.490       .  S
O279        C280   1.292       .  A
C280        C558   1.501       .  S
Zr281      O1085   2.456   1_556  S
Zr281       O282   2.447       .  S
Zr281       O283   2.437   1_556  S
Zr281       O290   2.375       .  S
Zr281       O293   2.394   1_556  S
Zr281       O291   2.378   1_556  S
Zr281      O1105   2.354       .  S
O282        H307   0.991       .  S
O282       H1118   0.990       .  S
O283        H303   0.990       .  S
Zr284       O285   2.434       .  S
Zr284       O286   2.434       .  S
Zr284       O289   2.375       .  S
Zr284       O294   2.364       .  S
Zr284       O292   2.372       .  S
Zr284      O1106   2.345   1_545  S
O285        H301   0.990       .  S
O286        H300   0.990       .  S
O286        H310   0.990       .  S
Zr287       O290   2.404       .  S
Zr287       O293   2.433   1_556  S
Zr287      O1108   2.402       .  S
Zr288       O289   2.387   1_554  S
Zr288       O294   2.423   1_554  S
Zr288      O1107   2.394   1_545  S
O289      Zr1097   2.354   1_545  S
O289        H297   0.965       .  S
O290      Zr1100   2.345       .  S
O291      Zr1104   2.394       .  S
O292      Zr1103   2.402   1_545  S
O292        H296   0.966       .  S
O293        H298   0.966       .  S
H302       O1098   0.990       .  S
O311       Zr323   2.371       .  S
O311        C313   1.273       .  A
O312      Zr1165   2.545   1_545  S
O312        C313   1.309       .  A
C313        C528   1.510       .  S
O314      Zr1142   2.497   1_545  S
O314        C316   1.301       .  A
O315      Zr1166   2.382       .  S
O315        C316   1.278       .  A
C316        C551   1.493       .  S
O317       Zr326   2.470       .  S
O317        C319   1.293       .  A
O318       Zr349   2.288       .  S
O318        C319   1.265       .  A
C319        C708   1.459       .  S
O320       Zr323   2.382       .  S
O320        C322   1.262       .  A
O321      Zr1166   2.487       .  S
O321        C322   1.287       .  A
C322        C581   1.476       .  S
Zr323       O324   2.433       .  S
Zr323       O325   2.433       .  S
Zr323       O329   2.352       .  S
Zr323       O330   2.370       .  S
Zr323       O353   2.364       .  S
Zr323       O355   2.372       .  S
O324        H367   0.990       .  S
O325        H366   0.990       .  S
O325        H370   0.990       .  S
Zr326      O1130   2.497       .  S
Zr326       O328   2.435       .  S
Zr326      O1143   2.435       .  S
Zr326       O354   2.355       .  S
Zr326       O356   2.376       .  S
Zr326      O1146   2.346       .  S
Zr326      O1145   2.393       .  S
O327      Zr1142   2.435   1_545  S
O327        H368   0.990       .  S
O327        H371   0.990       .  S
O328        H361   0.990       .  S
O329      Zr1142   2.393   1_545  S
O329      Zr1165   2.392   1_545  S
O330      Zr1142   2.346   1_545  S
O330      Zr1166   2.392       .  S
O330        H357   0.965       .  S
O331       Zr343   2.447       .  S
O331        C333   1.290       .  A
O332      Zr1166   2.309       .  S
O332       C1149   1.270   1_545  A
C333       O1148   1.270       .  A
C333        C698   1.427       .  S
O334       Zr346   2.393       .  S
O334        C336   1.265       .  A
O335       Zr349   2.497       .  S
O335        C336   1.289       .  A
C336        C591   1.502       .  S
O337       Zr346   2.387       .  S
O337        C339   1.277       .  A
O338       Zr350   2.493       .  S
O338        C339   1.299       .  A
C339        C521   1.491       .  S
O340       Zr343   2.465       .  S
O340        C342   1.292       .  A
O341       Zr349   2.406       .  S
O341        C342   1.283       .  A
C342        C538   1.470       .  S
Zr343       O344   2.434       .  S
Zr343      O1161   2.434       .  S
Zr343       O351   2.380       .  S
Zr343       O352   2.353       .  S
Zr343      O1171   2.374       .  S
Zr343      O1169   2.368       .  S
O344        H364   0.990       .  S
O344        H369   0.990       .  S
O345      Zr1159   2.434   1_545  S
O345        H365   0.990       .  S
Zr346       O347   2.434       .  S
Zr346       O348   2.430       .  S
Zr346       O352   2.385       .  S
Zr346       O351   2.344       .  S
Zr346       O356   2.372       .  S
Zr346       O354   2.366       .  S
O347        H363   0.990       .  S
O348        H362   0.990       .  S
O348        H372   0.990       .  S
Zr349      O1128   2.545       .  S
Zr349       O352   2.390       .  S
Zr349       O354   2.419       .  S
Zr349      O1145   2.392       .  S
Zr349      O1171   2.365       .  S
Zr350      O1131   2.382       .  S
Zr350      O1137   2.487       .  S
Zr350      O1148   2.309       .  S
Zr350       O351   2.383       .  S
Zr350       O356   2.370       .  S
Zr350      O1146   2.392       .  S
Zr350      O1169   2.385       .  S
O351        H359   0.966       .  S
O353      Zr1159   2.368   1_545  S
O353      Zr1166   2.385       .  S
O354        H358   0.961       .  S
O355      Zr1159   2.374   1_545  S
O355      Zr1165   2.365   1_545  S
O355        H360   0.965       .  S
O373       Zr385   2.495       .  S
O373        C375   1.298       .  A
O374       Zr411   2.429   1_554  S
O374        C375   1.290       .  A
C375        C568   1.485       .  S
O376       Zr388   2.380   1_554  S
O376        C378   1.272       .  A
O377       Zr412   2.550       .  S
O377        C378   1.308       .  A
C378        C671   1.509   1_554  S
O379       Zr388   2.373       .  S
O379        C381   1.254       .  A
O380       Zr411   2.529       .  S
O380        C381   1.297       .  A
C381        C768   1.498       .  S
O382       Zr385   2.462       .  S
O382        C384   1.293       .  A
O383       Zr412   2.471       .  S
O383        C384   1.298       .  A
C384        C508   1.499       .  S
Zr385       O386   2.435       .  S
Zr385       O387   2.435       .  S
Zr385       O391   2.372       .  S
Zr385       O392   2.390       .  S
Zr385       O415   2.377       .  S
Zr385       O417   2.367       .  S
O386        H429   0.990       .  S
O387        H428   0.990       .  S
O387        H432   0.990       .  S
Zr388       O389   2.437   1_556  S
Zr388       O390   2.433       .  S
Zr388       O392   2.369   1_556  S
Zr388       O391   2.379   1_556  S
Zr388       O416   2.385       .  S
Zr388       O418   2.353       .  S
O389        H430   0.990       .  S
O389        H433   0.989       .  S
O390        H423   0.990       .  S
O391       Zr411   2.409   1_554  S
O392       Zr412   2.397       .  S
O392        H419   0.966       .  S
O393       Zr405   2.385       .  S
O393        C395   1.262       .  A
O394       Zr412   2.515       .  S
O394        C395   1.291       .  A
C395        C761   1.511       .  S
O396       Zr408   2.467       .  S
O396        C398   1.296       .  A
O397       Zr411   2.466       .  S
O397        C398   1.298       .  A
C398        C498   1.498       .  S
O399       Zr408   2.540       .  S
O399        C401   1.307       .  A
O400       Zr412   2.373   1_556  S
O400        C401   1.281       .  A
C401        C561   1.494       .  S
O402       Zr405   2.391   1_556  S
O402        C404   1.276       .  A
O403       Zr411   2.542       .  S
O403        C404   1.309       .  A
C404        C658   1.523       .  S
Zr405       O406   2.434   1_554  S
Zr405       O407   2.430       .  S
Zr405       O413   2.381   1_554  S
Zr405       O414   2.355   1_554  S
Zr405       O417   2.343       .  S
Zr405       O415   2.389       .  S
O406        H426   0.988       .  S
O406        H431   0.986       .  S
O407        H427   0.991       .  S
Zr408       O409   2.435       .  S
Zr408       O410   2.434       .  S
Zr408       O414   2.405       .  S
Zr408       O413   2.338       .  S
Zr408       O418   2.359       .  S
Zr408       O416   2.363       .  S
O409        H425   0.990       .  S
O410        H424   0.990       .  S
O410        H434   0.990       .  S
Zr411       O414   2.406       .  S
Zr411       O416   2.426       .  S
Zr411       O417   2.386   1_556  S
Zr412       O413   2.424   1_554  S
Zr412       O415   2.413       .  S
Zr412       O418   2.377   1_554  S
O413        H421   0.962       .  S
O416        H420   0.965       .  S
O417        H422   0.963       .  S
O435       Zr447   2.389       .  S
O435        C437   1.275       .  A
O436       Zr473   2.464       .  S
O436        C437   1.293       .  A
C437        C688   1.456       .  S
O438       Zr450   2.461       .  S
O438        C440   1.291       .  A
O439       Zr474   2.469       .  S
O439        C440   1.296       .  A
C440        C501   1.496       .  S
O441       Zr450   2.414       .  S
O441        C443   1.282       .  A
O442       Zr473   2.418       .  S
O442        C443   1.290       .  A
C443        C611   1.463       .  S
O444       Zr447   2.393       .  S
O444        C446   1.279       .  A
O445       Zr474   2.531       .  S
O445        C446   1.307       .  A
C446        C531   1.516       .  S
Zr447       O448   2.432       .  S
Zr447       O449   2.435       .  S
Zr447       O453   2.371       .  S
Zr447       O454   2.370       .  S
Zr447       O477   2.348       .  S
Zr447       O479   2.361       .  S
O448        H491   0.990       .  S
O449        H490   0.990       .  S
O449        H494   0.990       .  S
Zr450       O451   2.435       .  S
Zr450       O452   2.434       .  S
Zr450       O454   2.365       .  S
Zr450       O453   2.381       .  S
Zr450       O478   2.392       .  S
Zr450       O480   2.340       .  S
O451        H492   0.990       .  S
O451        H495   0.990       .  S
O452        H485   0.990       .  S
O453       Zr473   2.404       .  S
O454       Zr474   2.387       .  S
O454        H481   0.965       .  S
O455       Zr467   2.376       .  S
O455        C457   1.276       .  A
O456       Zr474   2.437       .  S
O456        C457   1.294       .  A
C457        C601   1.449       .  S
O458       Zr470   2.409       .  S
O458        C460   1.282       .  A
O459       Zr473   2.489       .  S
O459        C460   1.299       .  A
C460        C518   1.505       .  S
O461       Zr470   2.411       .  S
O461        C463   1.271       .  A
O462       Zr474   2.473       .  S
O462        C463   1.287       .  A
C463        C681   1.490       .  S
O464       Zr467   2.454       .  S
O464        C466   1.290       .  A
O465       Zr473   2.465       .  S
O465        C466   1.295       .  A
C466        C511   1.493       .  S
Zr467       O468   2.434       .  S
Zr467       O469   2.434       .  S
Zr467       O475   2.380       .  S
Zr467       O476   2.343       .  S
Zr467       O479   2.340       .  S
Zr467       O477   2.391       .  S
O468        H488   0.990       .  S
O468        H493   0.990       .  S
O469        H489   0.990       .  S
Zr470       O471   2.439       .  S
Zr470       O472   2.446       .  S
Zr470       O476   2.361       .  S
Zr470       O475   2.371       .  S
Zr470       O480   2.366       .  S
Zr470       O478   2.352       .  S
O471        H487   0.990       .  S
O472        H486   0.990       .  S
O472        H496   0.990       .  S
Zr473       O476   2.370       .  S
Zr473       O478   2.397       .  S
Zr473       O479   2.378       .  S
Zr474       O475   2.433       .  S
Zr474       O477   2.395       .  S
Zr474       O480   2.392       .  S
O475        H483   0.966       .  S
O478        H482   0.965       .  S
O479        H484   0.965       .  S
C497        C498   1.404       .  A
C497        C502   1.401       .  A
C497        H504   1.084       .  S
C498        C499   1.415       .  A
C499        C500   1.414       .  A
C499       Br506   1.918       .  S
C500        C501   1.409       .  A
C500        H505   1.083       .  S
C501        C502   1.411       .  A
C502       Br503   1.907       .  S
C507        C508   1.407       .  A
C507        C512   1.411       .  A
C507        H514   1.083       .  S
C508        C509   1.416       .  A
C509        C510   1.408       .  A
C509       Br516   1.920       .  S
C510        C511   1.404       .  A
C510        H515   1.084       .  S
C511        C512   1.413       .  A
C512       Br513   1.918       .  S
C517        C518   1.417       .  A
C517        C522   1.402       .  A
C517        H524   1.083       .  S
C518        C519   1.410       .  A
C519        C520   1.409       .  A
C519       Br526   1.917       .  S
C520        C521   1.416       .  A
C520        H525   1.084       .  S
C521        C522   1.404       .  A
C522       Br523   1.918       .  S
C527        C528   1.422       .  A
C527        C532   1.415       .  A
C527        H534   1.084       .  S
C528        C529   1.405       .  A
C529        C530   1.409       .  A
C529       Br536   1.908       .  S
C530        C531   1.420       .  A
C530        H535   1.084       .  S
C531        C532   1.409       .  A
C532       Br533   1.916       .  S
C537        C538   1.404       .  A
C537        C542   1.409       .  A
C537        H544   1.083       .  S
C538       C1355   1.401       .  A
C539        C540   1.392       .  A
C539       C1354   1.401   1_545  A
C539       Br546   1.922       .  S
C540       C1357   1.413   1_545  A
C540        H545   1.083       .  S
C541        C542   1.415       .  A
C541       C1356   1.413       .  A
C542       Br543   1.910       .  S
C547        C548   1.395       .  A
C547        C552   1.401       .  A
C547        H554   1.084       .  S
C548        C549   1.409       .  A
C549        C550   1.397       .  A
C549       Br556   1.920       .  S
C550        C551   1.405       .  A
C550        H555   1.083       .  S
C551        C552   1.428       .  A
C552       Br553   1.926       .  S
C557        C558   1.399       .  A
C557        C562   1.388       .  A
C557        H564   1.074       .  S
C558        C559   1.412       .  A
C559        C560   1.421       .  A
C559       Br566   1.906       .  S
C560        C561   1.413       .  A
C560        H565   1.081       .  S
C561        C562   1.411       .  A
C562       Br563   1.916       .  S
C567        C568   1.412       .  A
C567        C572   1.414       .  A
C567        H574   1.083       .  S
C568        C569   1.401       .  A
C569        C570   1.397       .  A
C569       Br576   1.914       .  S
C570        C571   1.413       .  A
C570        H575   1.083       .  S
C571        C572   1.406       .  A
C572       Br573   1.914       .  S
C577        C578   1.406       .  A
C577        C582   1.397       .  A
C577        H584   1.084       .  S
C578        C579   1.417       .  A
C579        C580   1.397       .  A
C579       Br586   1.896       .  S
C580        C581   1.399       .  A
C580        H585   1.085       .  S
C581        C582   1.409       .  A
C582       Br583   1.900       .  S
C587        C588   1.409       .  A
C587        C592   1.407       .  A
C587        H594   1.079       .  S
C588        C589   1.421       .  A
C589        C590   1.410       .  A
C589       Br596   1.919       .  S
C590        C591   1.407       .  A
C590        H595   1.082       .  S
C591        C592   1.417       .  A
C592       Br593   1.920       .  S
C597        C598   1.401       .  A
C597        C602   1.398       .  A
C597        H604   1.084       .  S
C598        C599   1.418       .  A
C599        C600   1.377       .  A
C599       Br606   1.911       .  S
C600        C601   1.386       .  A
C600        H605   1.085       .  S
C601        C602   1.411       .  A
C602       Br603   1.918       .  S
C607        C608   1.404       .  A
C607        C612   1.400       .  A
C607        H614   1.084       .  S
C608        C609   1.411       .  A
C609        C610   1.377       .  A
C609       Br616   1.916       .  S
C610        C611   1.395       .  A
C610        H615   1.084       .  S
C611        C612   1.413       .  A
C612       Br613   1.919       .  S
C617        C618   1.411       .  A
C617        C622   1.400       .  A
C617       H2256   1.083       .  S
C618        C619   1.417       .  A
C619        C620   1.398       .  A
C619       Br626   1.915       .  S
C620        C621   1.400       .  A
C620        H625   1.084       .  S
C621        C622   1.403       .  A
C622      Br2255   1.919       .  S
Br623      C2254   1.919       .  S
H624       C2249   1.083       .  S
C627        C628   1.411   1_455  A
C627        C632   1.409       .  A
C627        H634   1.083   1_455  S
C628        C629   1.424   1_655  A
C629        C630   1.399       .  A
C629       Br636   1.924       .  S
C630        C631   1.400       .  A
C630        H635   1.084       .  S
C631        C632   1.409       .  A
C632       Br633   1.915       .  S
C637        C638   1.399       .  A
C637        C642   1.395       .  A
C637        H644   1.083       .  S
C638        C639   1.399       .  A
C639        C640   1.391       .  A
C639       Br646   1.920       .  S
C640        C641   1.408       .  A
C640        H645   1.084       .  S
C641        C642   1.411       .  A
C642       Br643   1.919       .  S
C647        C648   1.396       .  A
C647        C652   1.400       .  A
C647        H654   1.083       .  S
C648        C649   1.405       .  A
C649        C650   1.387       .  A
C649       Br656   1.900       .  S
C650        C651   1.392       .  A
C650        H655   1.084       .  S
C651        C652   1.414       .  A
C652       Br653   1.903       .  S
C657        C658   1.423       .  A
C657        C662   1.411   1_556  A
C657        H664   1.083       .  S
C658        C659   1.407       .  A
C659        C660   1.415   1_556  A
C659       Br666   1.918       .  S
C660        C661   1.427       .  A
C660        H665   1.081       .  S
C661        C662   1.411       .  A
C662       Br663   1.913       .  S
C667        C668   1.406       .  A
C667        C672   1.412   1_556  A
C667        H674   1.082   1_556  S
C668        C669   1.412       .  A
C669        C670   1.417       .  A
C669       Br676   1.913       .  S
C670        C671   1.409       .  A
C670        H675   1.080       .  S
C671        C672   1.420   1_556  A
C672       Br673   1.919       .  S
C677        C678   1.416       .  A
C677        C682   1.410       .  A
C677        H684   1.084       .  S
C678        C679   1.403       .  A
C679        C680   1.388       .  A
C679       Br686   1.914       .  S
C680        C681   1.403       .  A
C680        H685   1.073       .  S
C681        C682   1.407       .  A
C682       Br683   1.916       .  S
C687        C688   1.409       .  A
C687        C692   1.410       .  A
C687        H694   1.083       .  S
C688        C689   1.401       .  A
C689        C690   1.387       .  A
C689       Br696   1.925       .  S
C690        C691   1.398       .  A
C690        H695   1.078       .  S
C691        C692   1.409       .  A
C692       Br693   1.914       .  S
C697        C702   1.384       .  A
C697       C1514   1.408       .  A
C697        H704   1.084       .  S
C698        C699   1.391       .  A
C698       C1513   1.408       .  A
C699        C700   1.372       .  A
C699       Br706   1.920       .  S
C700       C1517   1.405       .  A
C700        H705   1.078       .  S
C701        C702   1.398   1_565  A
C701       C1516   1.405       .  A
C702       Br703   1.919       .  S
C707        C712   1.374       .  A
C707       C1524   1.418       .  A
C707        H714   1.083       .  S
C708        C709   1.398       .  A
C708       C1523   1.418       .  A
C709        C710   1.383       .  A
C709       Br716   1.922       .  S
C710       C1527   1.414       .  A
C710        H715   1.084       .  S
C711        C712   1.395       .  A
C711       C1526   1.414       .  A
C712       Br713   1.927       .  S
C717        C718   1.408       .  A
C717        C722   1.413       .  A
C717        H724   1.083       .  S
C718        C719   1.420       .  A
C719       C2352   1.410       .  A
C719      Br2358   1.920       .  S
C720       C2351   1.410   1_455  A
C720       C2353   1.406   1_455  A
C720        H725   1.083       .  S
C721       C1697   1.503       .  S
C721        C722   1.416       .  A
C721       C2352   1.406       .  A
C722       Br723   1.917       .  S
Br726      C2351   1.920   1_455  S
C727        C728   1.406       .  A
C727       C2364   1.411       .  A
C727       H2366   1.083       .  S
C728        C729   1.416       .  A
C729        C730   1.416       .  A
C729       Br736   1.916       .  S
C730        C731   1.409       .  A
C730        H735   1.083       .  S
C731       C1827   1.505       .  S
C731       C2364   1.417       .  A
C732       C2359   1.411       .  A
C732       C2363   1.417       .  A
C732       Br733   1.917       .  S
H734       C2359   1.083       .  S
C737        C742   1.385       .  A
C737       C3186   1.402   1_445  A
C737        H744   1.084       .  S
C738       C1638   1.458       .  S
C738        C739   1.410       .  A
C738       C3185   1.402       .  A
C739        C740   1.397       .  A
C739       Br746   1.921       .  S
C740        C741   1.400       .  A
C740        H745   1.084       .  S
C741       C3190   1.400       .  A
C742       C3189   1.400   1_445  A
C742       Br743   1.919       .  S
C747        C752   1.382       .  A
C747       C1564   1.404       .  A
C747        H754   1.084       .  S
C748       C1563   1.404   1_545  A
C748       C2381   1.411       .  A
C749        C750   1.390       .  A
C749       C2380   1.411   1_455  A
C749       Br756   1.923       .  S
C750        C751   1.397   1_455  A
C750        H755   1.084       .  S
C751       C3200   1.396   1_545  A
C752       C3199   1.396       .  A
C752       Br753   1.921       .  S
C757        C758   1.409   1_554  A
C757        C762   1.410       .  A
C757        H764   1.080       .  S
C758        C759   1.416       .  A
C759        C760   1.412       .  A
C759       Br766   1.918       .  S
C760        C761   1.408   1_556  A
C760        H765   1.078       .  S
C761        C762   1.418       .  A
C762       Br763   1.923       .  S
C767        C768   1.401   1_554  A
C767        C772   1.409       .  A
C767        H774   1.080       .  S
C768        C769   1.425       .  A
C769        C770   1.402       .  A
C769       Br776   1.924       .  S
C770        C771   1.399   1_556  A
C770        H775   1.083       .  S
C771        C772   1.422       .  A
C772       Br773   1.920       .  S
C777        C782   1.413       .  A
C777       C1594   1.412       .  A
C777        H784   1.083       .  S
C778        C779   1.426       .  A
C778       C1593   1.412       .  A
C779        C780   1.442       .  A
C779       Br786   1.910       .  S
C780        C781   1.421       .  A
C780        H785   1.083       .  S
C781       C1598   1.422       .  A
C782       C1597   1.422       .  A
C782       Br783   1.921       .  S
C787        C788   1.423       .  A
C787        C792   1.441       .  A
C787        H794   1.083       .  S
C788        C789   1.413       .  A
C789        C790   1.407       .  A
C789      Br1612   1.904   1_556  S
C790        C791   1.408       .  A
C790       H1611   1.083   1_556  S
C791        C792   1.423       .  A
C792       Br793   1.913       .  S
H795       C1606   1.083   1_554  S
Br796      C1605   1.904   1_554  S
C797        C798   1.418   1_554  A
C797        C802   1.381       .  A
C797        H804   1.083       .  S
C798       C2431   1.398       .  A
C799        C800   1.384       .  A
C799       C2430   1.398       .  A
C799       Br806   1.922       .  S
C800        C801   1.409   1_456  A
C800        H805   1.077       .  S
C801       C2434   1.392       .  A
C802       C2433   1.392       .  A
C802       Br803   1.922       .  S
C807        C808   1.391       .  A
C807        C812   1.385       .  A
C807        H814   1.084       .  S
C808       C2441   1.410   1_556  A
C809        C810   1.385       .  A
C809       C2440   1.410   1_554  A
C809       Br816   1.916       .  S
C810       C2443   1.397   1_554  A
C810        H815   1.083       .  S
C811        C812   1.424       .  A
C811       C2442   1.397   1_556  A
C812       Br813   1.927       .  S
O817       Zr829   2.374   1_554  S
O817        C819   1.258       .  A
O818      Zr2487   2.523   1_455  S
O818        C819   1.298       .  A
C819       C1587   1.492       .  S
O820       Zr832   2.422   1_655  S
O821       Zr856   2.401       .  S
O821        C822   1.284       .  A
C822       C3186   1.458       .  S
O823       Zr832   2.452       .  S
O823       C2457   1.291       .  A
O824       Zr855   2.351       .  S
O824        C825   1.278   1_554  A
C825       O2455   1.291       .  A
C825       C1624   1.453       .  S
O826       Zr829   2.389       .  S
O827       Zr856   2.585   1_455  S
O827        C828   1.316       .  A
C828       C1607   1.533       .  S
Zr829       O830   2.434       .  S
Zr829       O831   2.441   1_556  S
Zr829       O835   2.365       .  S
Zr829       O836   2.376       .  S
Zr829       O861   2.385   1_556  S
O830        H873   0.990       .  S
O831        H872   0.989       .  S
O831        H876   0.990       .  S
Zr832       O833   2.436       .  S
Zr832      O2466   2.436   1_455  S
Zr832       O836   2.383       .  S
Zr832       O835   2.342       .  S
Zr832      O2492   2.373   1_455  S
Zr832      O1678   2.363   1_455  S
O833        H874   0.990       .  S
O833        H877   0.990       .  S
O834      Zr2464   2.436       .  S
O834        H867   0.990       .  S
O835      Zr2487   2.389   1_456  S
O836        H863   0.966       .  S
O837       Zr849   2.463       .  S
O837       C2471   1.291       .  A
O838       Zr856   2.343       .  S
O838        C839   1.269   1_556  A
C839       O2469   1.291       .  A
C839       C1617   1.445       .  S
O840       Zr852   2.421   1_544  S
O841       Zr855   2.583       .  S
O841        C842   1.316       .  A
C842       C1597   1.546       .  S
O843       Zr852   2.406       .  S
O843        C845   1.268       .  A
O844      Zr2488   2.508       .  S
O844        C845   1.292       .  A
C845       C1574   1.509       .  S
O846       Zr849   2.419       .  S
O847       Zr855   2.389       .  S
O847        C848   1.282       .  A
C848       C1564   1.451       .  S
Zr849       O850   2.433       .  S
Zr849      O2483   2.434       .  S
Zr849       O857   2.321       .  S
Zr849       O858   2.392       .  S
Zr849      O1677   2.348   1_565  S
Zr849      O2491   2.364       .  S
O850        H870   0.990       .  S
O850        H875   0.990       .  S
O851      Zr2481   2.434   1_455  S
O851        H871   0.990       .  S
Zr852       O853   2.431   1_556  S
Zr852       O854   2.436       .  S
Zr852       O858   2.369   1_556  S
Zr852       O857   2.381   1_556  S
Zr852       O862   2.385       .  S
O853        H869   0.990       .  S
O854        H868   0.990       .  S
O854        H878   0.990       .  S
Zr855      O2450   2.523       .  S
Zr855      O2467   2.389   1_554  S
Zr855       O860   2.382   1_554  S
Zr855      O2493   2.415       .  S
Zr856      O2476   2.508       .  S
Zr856      O2489   2.419   1_556  S
Zr856       O859   2.378   1_656  S
Zr856      O2494   2.410       .  S
O857      Zr2488   2.418   1_554  S
O857        H865   0.952       .  S
O859      Zr2481   2.364   1_455  S
O860      Zr2464   2.373       .  S
O860        H864   0.966       .  S
O861      Zr1665   2.348   1_455  S
O861      Zr2487   2.415   1_455  S
O861        H866   0.964       .  S
O862      Zr1648   2.363   1_565  S
O862      Zr2488   2.410       .  S
O879       Zr891   2.409       .  S
O879       C2513   1.272       .  A
O880        C881   1.297   1_455  A
C881       O2511   1.272       .  A
C881       C3169   1.503       .  S
O882       Zr894   2.453       .  S
O882        C884   1.290       .  A
O883       Zr918   2.302       .  S
O883        C884   1.269       .  A
C884       C1517   1.435       .  S
O885       Zr894   2.438       .  S
O885       C2519   1.288       .  A
O886       Zr917   2.367       .  S
O886        C887   1.278   1_455  A
C887       O2517   1.288       .  A
C887       C1567   1.432       .  S
O888       Zr891   2.353       .  S
O888        C890   1.271       .  A
O889        C890   1.301       .  A
C890       C1494   1.471       .  S
Zr891       O892   2.435       .  S
Zr891       O893   2.437       .  S
Zr891       O897   2.353       .  S
Zr891       O898   2.358       .  S
Zr891       O921   2.374       .  S
Zr891      O2555   2.349       .  S
O892        H935   0.990       .  S
O893        H934   0.989       .  S
O893        H938   0.990       .  S
Zr894       O896   2.437       .  S
Zr894      O2554   2.348       .  S
Zr894       O924   2.366       .  S
O895        H936   0.990       .  S
O895        H939   0.990       .  S
O896        H929   0.990       .  S
O897      Zr1733   2.384       .  S
O898        H925   0.966       .  S
O899      Zr1727   2.434       .  S
O899        C901   1.287       .  A
O900        C901   1.281       .  A
C901       C1557   1.446       .  S
O902       Zr914   2.389       .  S
O902        C904   1.268       .  A
O903       Zr917   2.482       .  S
O903        C904   1.292       .  A
C904       C1507   1.460       .  S
O905      Zr2546   2.386       .  S
O905        C907   1.265       .  A
O906       Zr918   2.540       .  S
O906        C907   1.302       .  A
C907       C1544   1.501       .  S
O908       Zr911   2.448       .  S
O908        C910   1.288       .  A
O909       Zr917   2.310       .  S
O909        C910   1.268       .  A
C910       C1527   1.447       .  S
Zr911      O1715   2.434   1_455  S
Zr911       O912   2.434       .  S
Zr911      O2551   2.369       .  S
Zr911       O920   2.370       .  S
Zr911      O1737   2.361   1_455  S
O912        H932   0.989       .  S
O912        H937   0.990       .  S
O913       H2565   0.990   1_455  S
Zr914      O2537   2.386       .  S
Zr914       O915   2.431       .  S
Zr914       O916   2.438       .  S
Zr914       O920   2.359       .  S
Zr914      O2551   2.364       .  S
Zr914      O2556   2.364   1_455  S
Zr914       O922   2.380       .  S
O915        H931   0.989       .  S
O916       H2562   0.989       .  S
O916        H940   0.990       .  S
Zr917      O1713   2.384   1_455  S
Zr917       O920   2.389       .  S
Zr917       O922   2.380       .  S
Zr918       O919   2.376       .  S
Zr918       O924   2.372       .  S
O919      Zr2543   2.369       .  S
O919      Zr2546   2.364       .  S
O919        H927   0.966       .  S
O921      Zr1727   2.361       .  S
O922      Zr2526   2.348   1_455  S
O922        H926   0.964       .  S
O923      Zr2523   2.349   1_455  S
O923        H928   0.963       .  S
O924      Zr2546   2.364       .  S
H930       O2548   0.989       .  S
H933       O2545   0.990       .  S
O941       Zr953   2.405       .  S
O941        C943   1.271       .  A
O942      Zr2611   2.515       .  S
O942        C943   1.297       .  A
C943       C1484   1.506       .  S
O944       Zr956   2.503       .  S
O944        C946   1.298       .  A
O945       Zr980   2.405       .  S
O945        C946   1.283       .  A
C946       C1444   1.503       .  S
O947      Zr2588   2.463       .  S
O947        C949   1.290   1_554  A
O948       Zr979   2.353       .  S
O948        C949   1.261       .  A
C949       C1627   1.462       .  S
O950       Zr953   2.401   1_554  S
O950        C952   1.276       .  A
O951       Zr980   2.452   1_455  S
O951        C952   1.285       .  A
C952       C1464   1.461       .  S
Zr953       O954   2.437   1_556  S
Zr953       O955   2.438       .  S
Zr953       O959   2.333       .  S
Zr953       O960   2.376   1_556  S
Zr953       O983   2.360       .  S
Zr953       O985   2.387       .  S
O954        H997   0.989       .  S
O955        H996   0.990       .  S
O955       H1000   0.990       .  S
Zr956      O2579   2.463   1_655  S
Zr956       O957   2.438   1_655  S
Zr956      O2590   2.431       .  S
Zr956       O960   2.358   1_655  S
Zr956       O959   2.386   1_654  S
Zr956      O2616   2.387   1_554  S
Zr956      O2618   2.383       .  S
O957        H998   0.990       .  S
O957       H1001   0.990   1_455  S
O958      Zr2588   2.431       .  S
O958        H991   0.990       .  S
O959      Zr2611   2.375       .  S
O960       Zr980   2.406   1_455  S
O960        H987   0.965       .  S
O961       Zr973   2.470       .  S
O961        C963   1.293       .  A
O962       Zr980   2.310   1_455  S
O962       C2595   1.266   1_554  A
C963       O2594   1.266   1_556  A
C963       C1614   1.460       .  S
O964       Zr976   2.405       .  S
O964        C966   1.268       .  A
O965       Zr979   2.417       .  S
O965        C966   1.272       .  A
C966       C1457   1.468       .  S
O967       Zr976   2.391   1_554  S
O967        C969   1.272       .  A
O968      Zr2612   2.547       .  S
O968        C969   1.308       .  A
C969       C1477   1.527       .  S
O970       Zr973   2.447       .  S
O970        C972   1.290       .  A
O971       Zr979   2.443       .  S
O971        C972   1.292       .  A
C972       C1434   1.491       .  S
Zr973       O974   2.436       .  S
Zr973      O2607   2.434       .  S
Zr973       O981   2.376       .  S
Zr973       O982   2.346       .  S
Zr973      O2617   2.383       .  S
Zr973      O2615   2.340       .  S
O974        H994   0.990       .  S
O974        H999   0.990       .  S
O975      Zr2605   2.434       .  S
O975        H995   0.990       .  S
Zr976       O977   2.434       .  S
Zr976       O978   2.432       .  S
Zr976       O982   2.358       .  S
Zr976       O981   2.370       .  S
Zr976       O986   2.383   1_556  S
Zr976       O984   2.364       .  S
O977        H993   0.990       .  S
O978        H992   0.989   1_556  S
O978       H1002   0.990       .  S
Zr979      O2574   2.514       .  S
Zr979      O2591   2.375       .  S
Zr979       O982   2.387       .  S
Zr979       O984   2.448       .  S
Zr979      O2617   2.394       .  S
Zr980      O2600   2.547       .  S
Zr980      O2613   2.386   1_554  S
Zr980       O983   2.397   1_654  S
Zr980      O2618   2.367       .  S
O981      Zr2612   2.386   1_556  S
O981        H989   0.964       .  S
O983      Zr2605   2.340       .  S
O984      Zr2588   2.387   1_556  S
O984        H988   0.966       .  S
O985      Zr2605   2.383       .  S
O985      Zr2611   2.394       .  S
O985        H990   0.966       .  S
O986      Zr2588   2.383       .  S
O986      Zr2612   2.367       .  S
O1003     Zr1015   2.469       .  S
O1003      C1005   1.293       .  A
O1004     Zr1041   2.365       .  S
O1004      C1005   1.280       .  A
C1005      C1424   1.461       .  S
O1006     Zr1018   2.363       .  S
O1006      C1008   1.255       .  A
O1007     Zr1042   2.506       .  S
O1007      C1008   1.288       .  A
C1008      C1394   1.489       .  S
O1009     Zr1018   2.382       .  S
O1009      C2643   1.266       .  A
O1010     Zr1041   2.546       .  S
O1010      C1011   1.303       .  A
C1011      O2641   1.266   1_455  A
C1011      C3179   1.505   1_455  S
O1012     Zr2647   2.414       .  S
O1012      C1014   1.284       .  A
O1013     Zr1042   2.448       .  S
O1013      C1014   1.293       .  A
C1014      C1437   1.464       .  S
Zr1015     O2644   2.414   1_455  S
Zr1015     O1016   2.435       .  S
Zr1015     O1017   2.436       .  S
Zr1015     O1021   2.362       .  S
Zr1015     O2654   2.357   1_455  S
Zr1015     O2677   2.382   1_455  S
Zr1015     O1047   2.332       .  S
O1016      H1059   0.990       .  S
O1017      H1058   0.990       .  S
O1017      H1062   0.990       .  S
Zr1018     O1019   2.436       .  S
Zr1018     O1020   2.432       .  S
Zr1018     O1022   2.385       .  S
Zr1018     O2653   2.356       .  S
Zr1018     O1046   2.367       .  S
Zr1018     O1048   2.374       .  S
O1019      H1060   0.989       .  S
O1019      H1063   0.990       .  S
O1020      H1053   0.990       .  S
O1021     Zr2650   2.356   1_455  S
O1021     Zr1041   2.382       .  S
O1022     Zr2647   2.357       .  S
O1022     Zr1042   2.408       .  S
O1022      H1049   0.966       .  S
O1023     Zr2667   2.402       .  S
O1023      C1025   1.270       .  A
O1024     Zr1042   2.517       .  S
O1024      C1025   1.297       .  A
C1025      C1534   1.506       .  S
O1026     Zr1038   2.440       .  S
O1026      C2660   1.289       .  A
O1027     Zr1041   2.460       .  S
O1027      C1028   1.296       .  A
C1028      O2658   1.289   1_455  A
C1028      C1447   1.485       .  S
O1029     Zr1038   2.510       .  S
O1029      C1031   1.302       .  A
O1030     Zr1042   2.333       .  S
O1030      C1031   1.275       .  A
C1031      C1414   1.457       .  S
O1032     Zr1035   2.384       .  S
O1032      C1034   1.263       .  A
O1033     Zr1041   2.503       .  S
O1033      C1034   1.291       .  A
C1034      C1404   1.509       .  S
Zr1035     O2655   2.402       .  S
Zr1035     O1036   2.436       .  S
Zr1035     O1037   2.431       .  S
Zr1035     O2675   2.354   1_455  S
Zr1035     O1044   2.387       .  S
Zr1035     O1047   2.375       .  S
Zr1035     O2677   2.363   1_455  S
O1036      H2688   0.989       .  S
O1036      H1061   0.990       .  S
O1037      H1057   0.990       .  S
Zr1038     O1039   2.435       .  S
Zr1038     O1040   2.437       .  S
Zr1038     O2676   2.370       .  S
Zr1038     O1043   2.347       .  S
Zr1038     O1048   2.355       .  S
Zr1038     O1046   2.391       .  S
O1039      H1055   0.990       .  S
O1040      H1054   0.990       .  S
O1040      H1064   0.989       .  S
Zr1041     O1044   2.413       .  S
Zr1041     O2678   2.394   1_455  S
Zr1041     O1047   2.415       .  S
Zr1042     O1043   2.401       .  S
Zr1042     O1045   2.384       .  S
Zr1042     O1048   2.397       .  S
O1043     Zr2667   2.354       .  S
O1043      H1051   0.965       .  S
O1044     Zr2670   2.370   1_455  S
O1045     Zr2647   2.382       .  S
O1045     Zr2667   2.363       .  S
O1046     Zr2673   2.394       .  S
O1046      H1050   0.966       .  S
O1047      H1052   0.960       .  S
H1056      O2668   0.989       .  S
O1065     Zr1077   2.390       .  S
O1065      C1067   1.274       .  A
O1066     Zr1103   2.459   1_554  S
O1066      C1067   1.295       .  A
C1067      C1467   1.461       .  S
O1068     Zr1080   2.405   1_554  S
O1068      C1070   1.283       .  A
O1069     Zr1104   2.502       .  S
O1069      C1070   1.302       .  A
C1070      C1387   1.497       .  S
O1071     Zr1080   2.478       .  S
O1072     Zr1103   2.529       .  S
O1072      C1073   1.306       .  A
C1073      C1604   1.540       .  S
O1074     Zr1077   2.415   1_545  S
O1075     Zr1104   2.451       .  S
O1075      C1076   1.291       .  A
C1076      C1364   1.469       .  S
Zr1077     O1078   2.435       .  S
Zr1077     O1079   2.434       .  S
Zr1077     O1083   2.381       .  S
Zr1077     O1107   2.370       .  S
Zr1077     O1109   2.366       .  S
O1078      H1121   0.991       .  S
O1079      H1120   0.990       .  S
O1079      H1124   0.990       .  S
Zr1080     O1081   2.437   1_556  S
Zr1080     O1082   2.435       .  S
Zr1080     O1084   2.381   1_556  S
Zr1080     O1108   2.349       .  S
Zr1080     O1110   2.385       .  S
O1081      H1122   0.989       .  S
O1081      H1125   0.990       .  S
O1082      H1115   0.990       .  S
O1083     Zr1103   2.391   1_554  S
O1084     Zr1104   2.409       .  S
O1084      H1111   0.964       .  S
O1085      C1087   1.289       .  A
O1086     Zr1104   2.559       .  S
O1086      C1087   1.311       .  A
C1087      C1594   1.551       .  S
O1088     Zr1100   2.405       .  S
O1089     Zr1103   2.474       .  S
O1089      C1090   1.296       .  A
C1090      C1357   1.496       .  S
O1091     Zr1100   2.397       .  S
O1091      C1093   1.279       .  A
O1092     Zr1104   2.435   1_556  S
O1092      C1093   1.290       .  A
C1093      C1454   1.450       .  S
O1094     Zr1097   2.426       .  S
O1094      C1096   1.277       .  A
O1095     Zr1103   2.490       .  S
O1095      C1096   1.292       .  A
C1096      C1374   1.501       .  S
Zr1097     O1098   2.447       .  S
Zr1097     O1099   2.437   1_556  S
Zr1097     O1106   2.375       .  S
Zr1097     O1109   2.394   1_556  S
Zr1097     O1107   2.378   1_556  S
O1098      H1123   0.991       .  S
O1099      H1119   0.990       .  S
Zr1100     O1101   2.434       .  S
Zr1100     O1102   2.434       .  S
Zr1100     O1105   2.375       .  S
Zr1100     O1110   2.364       .  S
Zr1100     O1108   2.372       .  S
O1101      H1117   0.990       .  S
O1102      H1116   0.990       .  S
O1102      H1126   0.990       .  S
Zr1103     O1106   2.404       .  S
Zr1103     O1109   2.433   1_556  S
Zr1104     O1105   2.387   1_554  S
Zr1104     O1110   2.423   1_554  S
O1105      H1113   0.965       .  S
O1108      H1112   0.966       .  S
O1109      H1114   0.966       .  S
O1127     Zr1139   2.371       .  S
O1127      C1129   1.273       .  A
O1128      C1129   1.309       .  A
C1129      C1344   1.510       .  S
O1130      C1132   1.301       .  A
O1131      C1132   1.278       .  A
C1132      C1367   1.493       .  S
O1133     Zr1142   2.470       .  S
O1133      C1135   1.293       .  A
O1134     Zr1165   2.288       .  S
O1134      C1135   1.265       .  A
C1135      C1524   1.459       .  S
O1136     Zr1139   2.382       .  S
O1136      C1138   1.262       .  A
O1137      C1138   1.287       .  A
C1138      C1397   1.476       .  S
Zr1139     O1140   2.433       .  S
Zr1139     O1141   2.433       .  S
Zr1139     O1145   2.352       .  S
Zr1139     O1146   2.369       .  S
Zr1139     O1169   2.364       .  S
Zr1139     O1171   2.372       .  S
O1140      H1183   0.990       .  S
O1141      H1182   0.990       .  S
O1141      H1186   0.990       .  S
Zr1142     O1144   2.435       .  S
Zr1142     O1170   2.355       .  S
Zr1142     O1172   2.376       .  S
O1143      H1184   0.990       .  S
O1143      H1187   0.990       .  S
O1144      H1177   0.990       .  S
O1146      H1173   0.965       .  S
O1147     Zr1159   2.447       .  S
O1147      C1149   1.290       .  A
C1149      C1514   1.427   1_565  S
O1150     Zr1162   2.393       .  S
O1150      C1152   1.265       .  A
O1151     Zr1165   2.497       .  S
O1151      C1152   1.289       .  A
C1152      C1407   1.502       .  S
O1153     Zr1162   2.387       .  S
O1153      C1155   1.276       .  A
O1154     Zr1166   2.493   1_565  S
O1154      C1155   1.299       .  A
C1155      C1337   1.491       .  S
O1156     Zr1159   2.465       .  S
O1156      C1158   1.292       .  A
O1157     Zr1165   2.406       .  S
O1157      C1158   1.283       .  A
C1158      C1354   1.470       .  S
Zr1159     O1160   2.434       .  S
Zr1159     O1167   2.380       .  S
Zr1159     O1168   2.353       .  S
O1160      H1180   0.990       .  S
O1160      H1185   0.990       .  S
O1161      H1181   0.990       .  S
Zr1162     O1163   2.434       .  S
Zr1162     O1164   2.430       .  S
Zr1162     O1168   2.385       .  S
Zr1162     O1167   2.344       .  S
Zr1162     O1172   2.372       .  S
Zr1162     O1170   2.366       .  S
O1163      H1179   0.990       .  S
O1164      H1178   0.990       .  S
O1164      H1188   0.990       .  S
Zr1165     O1168   2.389       .  S
Zr1165     O1170   2.419       .  S
Zr1166     O1167   2.383   1_545  S
Zr1166     O1172   2.370   1_545  S
O1167      H1175   0.966       .  S
O1170      H1174   0.961       .  S
O1171      H1176   0.965       .  S
O1189     Zr1201   2.495       .  S
O1189      C1191   1.298       .  A
O1190     Zr1227   2.429   1_554  S
O1190      C1191   1.290       .  A
C1191      C1384   1.485       .  S
O1192     Zr1204   2.380   1_554  S
O1192      C1194   1.272       .  A
O1193     Zr1228   2.550       .  S
O1193      C1194   1.308       .  A
C1194      C1487   1.509   1_554  S
O1195     Zr1204   2.373       .  S
O1195      C1197   1.254       .  A
O1196     Zr1227   2.529       .  S
O1196      C1197   1.297       .  A
C1197      C1584   1.498       .  S
O1198     Zr1201   2.462       .  S
O1198      C1200   1.293       .  A
O1199     Zr1228   2.471       .  S
O1199      C1200   1.298       .  A
C1200      C1324   1.499       .  S
Zr1201     O1202   2.435       .  S
Zr1201     O1203   2.435       .  S
Zr1201     O1207   2.372       .  S
Zr1201     O1208   2.390       .  S
Zr1201     O1231   2.377       .  S
Zr1201     O1233   2.367       .  S
O1202      H1245   0.990       .  S
O1203      H1244   0.990       .  S
O1203      H1248   0.990       .  S
Zr1204     O1205   2.437   1_556  S
Zr1204     O1206   2.433       .  S
Zr1204     O1208   2.369   1_556  S
Zr1204     O1207   2.379   1_556  S
Zr1204     O1232   2.385       .  S
Zr1204     O1234   2.353       .  S
O1205      H1246   0.990       .  S
O1205      H1249   0.989       .  S
O1206      H1239   0.990       .  S
O1207     Zr1227   2.409   1_554  S
O1208     Zr1228   2.397       .  S
O1208      H1235   0.966       .  S
O1209     Zr1221   2.385       .  S
O1209      C1211   1.262       .  A
O1210     Zr1228   2.515       .  S
O1210      C1211   1.291       .  A
C1211      C1577   1.511       .  S
O1212     Zr1224   2.467       .  S
O1212      C1214   1.296       .  A
O1213     Zr1227   2.466       .  S
O1213      C1214   1.298       .  A
C1214      C1314   1.498       .  S
O1215     Zr1224   2.540       .  S
O1215      C1217   1.307       .  A
O1216     Zr1228   2.373   1_556  S
O1216      C1217   1.281       .  A
C1217      C1377   1.494       .  S
O1218     Zr1221   2.391   1_556  S
O1218      C1220   1.276       .  A
O1219     Zr1227   2.542       .  S
O1219      C1220   1.309       .  A
C1220      C1474   1.523       .  S
Zr1221     O1222   2.434   1_554  S
Zr1221     O1223   2.430       .  S
Zr1221     O1229   2.381   1_554  S
Zr1221     O1230   2.355   1_554  S
Zr1221     O1233   2.343       .  S
Zr1221     O1231   2.389       .  S
O1222      H1242   0.988       .  S
O1222      H1247   0.986       .  S
O1223      H1243   0.991       .  S
Zr1224     O1225   2.435       .  S
Zr1224     O1226   2.434       .  S
Zr1224     O1230   2.405       .  S
Zr1224     O1229   2.338       .  S
Zr1224     O1234   2.359       .  S
Zr1224     O1232   2.363       .  S
O1225      H1241   0.990       .  S
O1226      H1240   0.990       .  S
O1226      H1250   0.990       .  S
Zr1227     O1230   2.406       .  S
Zr1227     O1232   2.426       .  S
Zr1227     O1233   2.386   1_556  S
Zr1228     O1229   2.424   1_554  S
Zr1228     O1231   2.413       .  S
Zr1228     O1234   2.377   1_554  S
O1229      H1237   0.962       .  S
O1232      H1236   0.965       .  S
O1233      H1238   0.963       .  S
O1251     Zr1263   2.389       .  S
O1251      C1253   1.275       .  A
O1252     Zr1289   2.464       .  S
O1252      C1253   1.293       .  A
C1253      C1504   1.456       .  S
O1254     Zr1266   2.461       .  S
O1254      C1256   1.291       .  A
O1255     Zr1290   2.469       .  S
O1255      C1256   1.296       .  A
C1256      C1317   1.496       .  S
O1257     Zr1266   2.414       .  S
O1257      C1259   1.282       .  A
O1258     Zr1289   2.418       .  S
O1258      C1259   1.290       .  A
C1259      C1427   1.463       .  S
O1260     Zr1263   2.393       .  S
O1260      C1262   1.279       .  A
O1261     Zr1290   2.531       .  S
O1261      C1262   1.307       .  A
C1262      C1347   1.516       .  S
Zr1263     O1264   2.432       .  S
Zr1263     O1265   2.435       .  S
Zr1263     O1269   2.371       .  S
Zr1263     O1270   2.370       .  S
Zr1263     O1293   2.348       .  S
Zr1263     O1295   2.361       .  S
O1264      H1307   0.990       .  S
O1265      H1306   0.990       .  S
O1265      H1310   0.990       .  S
Zr1266     O1267   2.435       .  S
Zr1266     O1268   2.434       .  S
Zr1266     O1270   2.365       .  S
Zr1266     O1269   2.381       .  S
Zr1266     O1294   2.392       .  S
Zr1266     O1296   2.340       .  S
O1267      H1308   0.990       .  S
O1267      H1311   0.990       .  S
O1268      H1301   0.990       .  S
O1269     Zr1289   2.404       .  S
O1270     Zr1290   2.387       .  S
O1270      H1297   0.965       .  S
O1271     Zr1283   2.376       .  S
O1271      C1273   1.276       .  A
O1272     Zr1290   2.437       .  S
O1272      C1273   1.294       .  A
C1273      C1417   1.449       .  S
O1274     Zr1286   2.409       .  S
O1274      C1276   1.282       .  A
O1275     Zr1289   2.489       .  S
O1275      C1276   1.299       .  A
C1276      C1334   1.505       .  S
O1277     Zr1286   2.411       .  S
O1277      C1279   1.271       .  A
O1278     Zr1290   2.473       .  S
O1278      C1279   1.287       .  A
C1279      C1497   1.490       .  S
O1280     Zr1283   2.454       .  S
O1280      C1282   1.290       .  A
O1281     Zr1289   2.465       .  S
O1281      C1282   1.295       .  A
C1282      C1327   1.493       .  S
Zr1283     O1284   2.434       .  S
Zr1283     O1285   2.434       .  S
Zr1283     O1291   2.380       .  S
Zr1283     O1292   2.343       .  S
Zr1283     O1295   2.340       .  S
Zr1283     O1293   2.391       .  S
O1284      H1304   0.990       .  S
O1284      H1309   0.990       .  S
O1285      H1305   0.990       .  S
Zr1286     O1287   2.439       .  S
Zr1286     O1288   2.446       .  S
Zr1286     O1292   2.361       .  S
Zr1286     O1291   2.371       .  S
Zr1286     O1296   2.366       .  S
Zr1286     O1294   2.352       .  S
O1287      H1303   0.990       .  S
O1288      H1302   0.990       .  S
O1288      H1312   0.990       .  S
Zr1289     O1292   2.370       .  S
Zr1289     O1294   2.397       .  S
Zr1289     O1295   2.378       .  S
Zr1290     O1291   2.433       .  S
Zr1290     O1293   2.395       .  S
Zr1290     O1296   2.392       .  S
O1291      H1299   0.966       .  S
O1294      H1298   0.965       .  S
O1295      H1300   0.965       .  S
C1313      C1314   1.404       .  A
C1313      C1318   1.401       .  A
C1313      H1320   1.084       .  S
C1314      C1315   1.415       .  A
C1315      C1316   1.414       .  A
C1315     Br1322   1.918       .  S
C1316      C1317   1.409       .  A
C1316      H1321   1.083       .  S
C1317      C1318   1.411       .  A
C1318     Br1319   1.907       .  S
C1323      C1324   1.407       .  A
C1323      C1328   1.411       .  A
C1323      H1330   1.083       .  S
C1324      C1325   1.416       .  A
C1325      C1326   1.408       .  A
C1325     Br1332   1.920       .  S
C1326      C1327   1.404       .  A
C1326      H1331   1.084       .  S
C1327      C1328   1.413       .  A
C1328     Br1329   1.918       .  S
C1333      C1334   1.417       .  A
C1333      C1338   1.402       .  A
C1333      H1340   1.083       .  S
C1334      C1335   1.410       .  A
C1335      C1336   1.409       .  A
C1335     Br1342   1.917       .  S
C1336      C1337   1.416       .  A
C1336      H1341   1.084       .  S
C1337      C1338   1.405       .  A
C1338     Br1339   1.918       .  S
C1343      C1344   1.422       .  A
C1343      C1348   1.415       .  A
C1343      H1350   1.084       .  S
C1344      C1345   1.405       .  A
C1345      C1346   1.409       .  A
C1345     Br1352   1.908       .  S
C1346      C1347   1.420       .  A
C1346      H1351   1.084       .  S
C1347      C1348   1.409       .  A
C1348     Br1349   1.916       .  S
C1353      C1354   1.404       .  A
C1353      C1358   1.409       .  A
C1353      H1360   1.083       .  S
C1355      C1356   1.392       .  A
C1355     Br1362   1.922       .  S
C1356      H1361   1.083       .  S
C1357      C1358   1.415       .  A
C1358     Br1359   1.910       .  S
C1363      C1364   1.395       .  A
C1363      C1368   1.401       .  A
C1363      H1370   1.084       .  S
C1364      C1365   1.409       .  A
C1365      C1366   1.397       .  A
C1365     Br1372   1.920       .  S
C1366      C1367   1.405       .  A
C1366      H1371   1.083       .  S
C1367      C1368   1.428       .  A
C1368     Br1369   1.926       .  S
C1373      C1374   1.399       .  A
C1373      C1378   1.388       .  A
C1373      H1380   1.074       .  S
C1374      C1375   1.412       .  A
C1375      C1376   1.421       .  A
C1375     Br1382   1.906       .  S
C1376      C1377   1.413       .  A
C1376      H1381   1.081       .  S
C1377      C1378   1.411       .  A
C1378     Br1379   1.916       .  S
C1383      C1384   1.412       .  A
C1383      C1388   1.414       .  A
C1383      H1390   1.083       .  S
C1384      C1385   1.401       .  A
C1385      C1386   1.397       .  A
C1385     Br1392   1.914       .  S
C1386      C1387   1.413       .  A
C1386      H1391   1.083       .  S
C1387      C1388   1.406       .  A
C1388     Br1389   1.914       .  S
C1393      C1394   1.406       .  A
C1393      C1398   1.397       .  A
C1393      H1400   1.084       .  S
C1394      C1395   1.417       .  A
C1395      C1396   1.397       .  A
C1395     Br1402   1.896       .  S
C1396      C1397   1.399       .  A
C1396      H1401   1.085       .  S
C1397      C1398   1.409       .  A
C1398     Br1399   1.900       .  S
C1403      C1404   1.409       .  A
C1403      C1408   1.407       .  A
C1403      H1410   1.079       .  S
C1404      C1405   1.421       .  A
C1405      C1406   1.410       .  A
C1405     Br1412   1.919       .  S
C1406      C1407   1.407       .  A
C1406      H1411   1.082       .  S
C1407      C1408   1.417       .  A
C1408     Br1409   1.920       .  S
C1413      C1414   1.401       .  A
C1413      C1418   1.398       .  A
C1413      H1420   1.084       .  S
C1414      C1415   1.418       .  A
C1415      C1416   1.377       .  A
C1415     Br1422   1.911       .  S
C1416      C1417   1.386       .  A
C1416      H1421   1.085       .  S
C1417      C1418   1.411       .  A
C1418     Br1419   1.918       .  S
C1423      C1424   1.404       .  A
C1423      C1428   1.400       .  A
C1423      H1430   1.084       .  S
C1424      C1425   1.411       .  A
C1425      C1426   1.377       .  A
C1425     Br1432   1.916       .  S
C1426      C1427   1.395       .  A
C1426      H1431   1.084       .  S
C1427      C1428   1.413       .  A
C1428     Br1429   1.919       .  S
C1433      C1434   1.411       .  A
C1433      C1438   1.400       .  A
C1433      H3072   1.083       .  S
C1434      C1435   1.417       .  A
C1435      C1436   1.398       .  A
C1435     Br1442   1.915       .  S
C1436      C1437   1.400       .  A
C1436      H1441   1.084       .  S
C1437      C1438   1.403       .  A
C1438     Br3071   1.919       .  S
Br1439     C3070   1.919       .  S
H1440      C3065   1.083       .  S
C1443      C1444   1.411   1_455  A
C1443      C1448   1.409       .  A
C1443      H1450   1.083   1_455  S
C1444      C1445   1.424   1_655  A
C1445      C1446   1.399       .  A
C1445     Br1452   1.924       .  S
C1446      C1447   1.400       .  A
C1446      H1451   1.084       .  S
C1447      C1448   1.409       .  A
C1448     Br1449   1.915       .  S
C1453      C1454   1.399       .  A
C1453      C1458   1.395       .  A
C1453      H1460   1.083       .  S
C1454      C1455   1.399       .  A
C1455      C1456   1.391       .  A
C1455     Br1462   1.920       .  S
C1456      C1457   1.408       .  A
C1456      H1461   1.084       .  S
C1457      C1458   1.411       .  A
C1458     Br1459   1.919       .  S
C1463      C1464   1.396       .  A
C1463      C1468   1.400       .  A
C1463      H1470   1.083       .  S
C1464      C1465   1.405       .  A
C1465      C1466   1.387       .  A
C1465     Br1472   1.900       .  S
C1466      C1467   1.392       .  A
C1466      H1471   1.084       .  S
C1467      C1468   1.414       .  A
C1468     Br1469   1.903       .  S
C1473      C1474   1.423       .  A
C1473      C1478   1.411   1_556  A
C1473      H1480   1.083       .  S
C1474      C1475   1.407       .  A
C1475      C1476   1.415   1_556  A
C1475     Br1482   1.918       .  S
C1476      C1477   1.427       .  A
C1476      H1481   1.081       .  S
C1477      C1478   1.411       .  A
C1478     Br1479   1.913       .  S
C1483      C1484   1.406       .  A
C1483      C1488   1.412   1_556  A
C1483      H1490   1.082   1_556  S
C1484      C1485   1.412       .  A
C1485      C1486   1.417       .  A
C1485     Br1492   1.913       .  S
C1486      C1487   1.409       .  A
C1486      H1491   1.080       .  S
C1487      C1488   1.420   1_556  A
C1488     Br1489   1.919       .  S
C1493      C1494   1.416       .  A
C1493      C1498   1.410       .  A
C1493      H1500   1.084       .  S
C1494      C1495   1.403       .  A
C1495      C1496   1.388       .  A
C1495     Br1502   1.914       .  S
C1496      C1497   1.403       .  A
C1496      H1501   1.073       .  S
C1497      C1498   1.407       .  A
C1498     Br1499   1.916       .  S
C1503      C1504   1.409       .  A
C1503      C1508   1.410       .  A
C1503      H1510   1.083       .  S
C1504      C1505   1.401       .  A
C1505      C1506   1.387       .  A
C1505     Br1512   1.925       .  S
C1506      C1507   1.398       .  A
C1506      H1511   1.078       .  S
C1507      C1508   1.409       .  A
C1508     Br1509   1.914       .  S
C1513      C1518   1.384       .  A
C1513      H1520   1.084       .  S
C1514      C1515   1.391   1_545  A
C1515      C1516   1.372       .  A
C1515     Br1522   1.920       .  S
C1516      H1521   1.078       .  S
C1517      C1518   1.398       .  A
C1518     Br1519   1.919       .  S
C1523      C1528   1.374       .  A
C1523      H1530   1.083       .  S
C1524      C1525   1.398       .  A
C1525      C1526   1.383       .  A
C1525     Br1532   1.922       .  S
C1526      H1531   1.084       .  S
C1527      C1528   1.395       .  A
C1528     Br1529   1.927       .  S
C1533      C1534   1.408       .  A
C1533      C1538   1.413       .  A
C1533      H1540   1.083       .  S
C1534      C1535   1.420       .  A
C1535      C3168   1.410       .  A
C1535     Br3174   1.920       .  S
C1536      C3167   1.410   1_455  A
C1536      C3169   1.406   1_455  A
C1536      H1541   1.083       .  S
C1537      C2513   1.503       .  S
C1537      C3168   1.406       .  A
C1537      C1538   1.416       .  A
C1538     Br1539   1.917       .  S
Br1542     C3167   1.920   1_455  S
C1543      C1544   1.406       .  A
C1543      C3180   1.411       .  A
C1543      H3182   1.083       .  S
C1544      C1545   1.416       .  A
C1545      C1546   1.416       .  A
C1545     Br1552   1.916       .  S
C1546      C1547   1.409       .  A
C1546      H1551   1.083       .  S
C1547      C2643   1.505       .  S
C1547      C3180   1.417       .  A
C1548      C3175   1.411       .  A
C1548      C3179   1.417       .  A
C1548     Br1549   1.917       .  S
H1550      C3175   1.083       .  S
C1553      C2370   1.402   1_455  A
C1553      C1558   1.385       .  A
C1553      H1560   1.084       .  S
C1554      C2454   1.458       .  S
C1554      C2369   1.402   1_565  A
C1554      C1555   1.410       .  A
C1555      C1556   1.396       .  A
C1555     Br1562   1.921       .  S
C1556      C1557   1.400       .  A
C1556      H1561   1.084       .  S
C1557      C2374   1.400   1_565  A
C1558      C2373   1.400   1_455  A
C1558     Br1559   1.919       .  S
C1563      C1568   1.382       .  A
C1563      H1570   1.084       .  S
C1564      C3197   1.411       .  A
C1565      C3196   1.411   1_455  A
C1565      C1566   1.390       .  A
C1565     Br1572   1.923       .  S
C1566      C1567   1.397   1_455  A
C1566      H1571   1.084       .  S
C1567      C2384   1.396       .  A
C1568      C2383   1.396   1_565  A
C1568     Br1569   1.921       .  S
C1573      C1574   1.409   1_554  A
C1573      C1578   1.410       .  A
C1573      H1580   1.080       .  S
C1574      C1575   1.416       .  A
C1575      C1576   1.412       .  A
C1575     Br1582   1.918       .  S
C1576      C1577   1.408   1_556  A
C1576      H1581   1.078       .  S
C1577      C1578   1.418       .  A
C1578     Br1579   1.923       .  S
C1583      C1584   1.401   1_554  A
C1583      C1588   1.409       .  A
C1583      H1590   1.080       .  S
C1584      C1585   1.425       .  A
C1585      C1586   1.402       .  A
C1585     Br1592   1.924       .  S
C1586      C1587   1.399   1_556  A
C1586      H1591   1.083       .  S
C1587      C1588   1.422       .  A
C1588     Br1589   1.920       .  S
C1593      C1598   1.413       .  A
C1593      H1600   1.083   1_545  S
C1594      C1595   1.426       .  A
C1595      C1596   1.442       .  A
C1595     Br1602   1.910       .  S
C1596      C1597   1.421       .  A
C1596      H1601   1.083       .  S
C1598     Br1599   1.921   1_545  S
C1603      C1604   1.423       .  A
C1603      C1608   1.441       .  A
C1603      H1610   1.083       .  S
C1604      C1605   1.413       .  A
C1605      C1606   1.407       .  A
C1606      C1607   1.408       .  A
C1607      C1608   1.424       .  A
C1608     Br1609   1.913       .  S
C1613      C1614   1.418   1_554  A
C1613      C1618   1.381       .  A
C1613      H1620   1.083       .  S
C1614      C3247   1.398       .  A
C1615      C3246   1.398       .  A
C1615      C1616   1.384       .  A
C1615     Br1622   1.922       .  S
C1616      C1617   1.409   1_456  A
C1616      H1621   1.077       .  S
C1617      C3250   1.392       .  A
C1618      C3249   1.392       .  A
C1618     Br1619   1.922       .  S
C1623      C1624   1.391       .  A
C1623      C1628   1.385       .  A
C1623      H1630   1.084       .  S
C1624      C3257   1.410   1_556  A
C1625      C3256   1.410   1_554  A
C1625      C1626   1.385       .  A
C1625     Br1632   1.916       .  S
C1626      C3259   1.397   1_554  A
C1626      H1631   1.083       .  S
C1627      C3258   1.397   1_556  A
C1627      C1628   1.424       .  A
C1628     Br1629   1.927       .  S
O1633     Zr1645   2.374   1_554  S
O1633      C1635   1.258       .  A
O1634      C1635   1.298       .  A
C1635      C2403   1.492       .  S
O1636     Zr1648   2.422       .  S
O1636      C2454   1.285   1_545  A
O1637     Zr1672   2.401       .  S
O1637      C1638   1.284       .  A
C1638      O2452   1.285       .  A
O1639     Zr1648   2.452       .  S
O1640     Zr1671   2.351   1_455  S
O1640      C1641   1.278   1_554  A
C1641      C2440   1.453       .  S
O1642     Zr1645   2.389   1_565  S
O1642      C2460   1.277       .  A
O1643     Zr1672   2.584       .  S
O1643      C1644   1.316       .  A
C1644      O2458   1.277       .  A
C1644      C2423   1.533       .  S
Zr1645     O1646   2.434       .  S
Zr1645     O1647   2.441   1_556  S
Zr1645     O1651   2.365       .  S
Zr1645     O1652   2.376       .  S
Zr1645     O2491   2.333   1_546  S
Zr1645     O1677   2.385   1_556  S
O1646      H1689   0.990       .  S
O1647      H1688   0.989       .  S
O1647      H1692   0.990   1_545  S
Zr1648     O1649   2.436       .  S
Zr1648     O1652   2.383       .  S
Zr1648     O1651   2.342       .  S
O1649      H1690   0.990       .  S
O1649      H1693   0.990       .  S
O1650      H1683   0.990       .  S
O1652     Zr2488   2.386   1_545  S
O1652      H1679   0.966       .  S
O1653     Zr1665   2.463       .  S
O1654     Zr1672   2.343       .  S
O1654      C1655   1.269   1_556  A
C1655      C2433   1.445       .  S
O1656     Zr1668   2.421   1_554  S
O1656      C2474   1.282       .  A
O1657     Zr1671   2.583       .  S
O1657      C1658   1.316       .  A
C1658      O2472   1.282       .  A
C1658      C2413   1.546       .  S
O1659     Zr1668   2.406       .  S
O1659      C1661   1.268       .  A
O1660      C1661   1.292       .  A
C1661      C2390   1.509       .  S
O1662     Zr1665   2.419       .  S
O1662      C2480   1.285       .  A
O1663     Zr1671   2.389       .  S
O1663      C1664   1.282       .  A
C1664      O2478   1.285   1_545  A
C1664      C2380   1.451       .  S
Zr1665     O1666   2.433       .  S
Zr1665     O1673   2.322       .  S
Zr1665     O1674   2.392       .  S
O1666      H1686   0.990       .  S
O1666      H1691   0.990       .  S
O1667      H1687   0.990       .  S
Zr1668     O1669   2.431   1_556  S
Zr1668     O1670   2.436       .  S
Zr1668     O1674   2.369   1_556  S
Zr1668     O1673   2.381   1_556  S
Zr1668     O1678   2.385       .  S
Zr1668     O2492   2.365       .  S
O1669      H1685   0.990       .  S
O1670      H1684   0.990       .  S
O1670      H1694   0.990       .  S
Zr1671     O2490   2.385   1_545  S
Zr1671     O1676   2.382   1_554  S
Zr1672     O2468   2.386       .  S
Zr1672     O1675   2.378   1_556  S
O1673      H1681   0.952       .  S
O1674     Zr2487   2.385       .  S
O1675     Zr2461   2.333   1_554  S
O1676     Zr2484   2.365   1_545  S
O1676      H1680   0.966       .  S
O1677      H1682   0.964       .  S
O1695     Zr1707   2.409       .  S
O1696     Zr2549   2.511       .  S
O1696      C1697   1.297       .  A
O1698     Zr1710   2.454       .  S
O1698      C1700   1.291   1_545  A
O1699     Zr1734   2.303       .  S
O1699      C1700   1.270       .  A
C1700      C2333   1.443       .  S
O1701     Zr1710   2.438       .  S
O1702     Zr1733   2.367   1_545  S
O1702      C1703   1.278       .  A
C1703      C2383   1.432       .  S
O1704     Zr1707   2.353       .  S
O1704      C1706   1.271       .  A
O1705     Zr2550   2.500       .  S
O1705      C1706   1.301       .  A
C1706      C2310   1.471       .  S
Zr1707     O1708   2.435       .  S
Zr1707     O1709   2.437       .  S
Zr1707     O1713   2.353       .  S
Zr1707     O1714   2.358       .  S
Zr1707     O1737   2.374       .  S
O1708      H1751   0.990       .  S
O1709      H1750   0.989       .  S
O1709      H1754   0.990       .  S
Zr1710     O2527   2.434   1_545  S
Zr1710     O1712   2.437       .  S
Zr1710     O2530   2.359   1_545  S
Zr1710     O2529   2.376   1_545  S
Zr1710     O1740   2.366       .  S
O1711     Zr2526   2.434       .  S
O1711      H1752   0.990       .  S
O1711      H1755   0.990       .  S
O1712      H1745   0.990       .  S
O1713     Zr2526   2.376       .  S
O1714     Zr2526   2.359       .  S
O1714     Zr2550   2.391       .  S
O1714      H1741   0.966       .  S
O1715      C1717   1.287       .  A
O1716     Zr2550   2.390       .  S
O1716      C1717   1.281       .  A
C1717      C2373   1.446       .  S
O1718     Zr1730   2.389       .  S
O1718      C1720   1.268       .  A
O1719     Zr1733   2.482   1_545  S
O1719      C1720   1.292       .  A
C1720      C2323   1.460       .  S
O1721      C1723   1.265   1_455  A
O1722     Zr1734   2.540   1_545  S
O1722      C1723   1.302       .  A
C1723      C2360   1.501       .  S
O1724     Zr1727   2.448       .  S
O1724      C1726   1.288       .  A
O1725     Zr1733   2.310   1_545  S
O1725      C1726   1.268   1_545  A
C1726      C2343   1.447       .  S
Zr1727     O1728   2.434   1_565  S
Zr1727     O2545   2.434       .  S
Zr1727     O1736   2.370   1_565  S
Zr1727     O2555   2.350       .  S
O1728      H1748   0.989       .  S
O1728      H1753   0.990       .  S
O1729     Zr2543   2.434       .  S
Zr1730     O1731   2.431       .  S
Zr1730     O1732   2.438       .  S
Zr1730     O1736   2.359       .  S
Zr1730     O1738   2.380       .  S
O1731      H1747   0.989       .  S
O1732      H1756   0.990       .  S
Zr1733     O2512   2.511       .  S
Zr1733     O1736   2.389   1_565  S
Zr1733     O1738   2.380   1_565  S
Zr1733     O2555   2.387       .  S
Zr1734     O2521   2.500       .  S
Zr1734     O2532   2.390       .  S
Zr1734     O2530   2.391       .  S
Zr1734     O1735   2.376   1_665  S
Zr1734     O2553   2.375       .  S
Zr1734     O1740   2.372   1_565  S
O1735      H1743   0.966       .  S
O1737     Zr2550   2.375       .  S
O1738      H1742   0.964       .  S
O1739     Zr2543   2.349       .  S
O1739     Zr2549   2.387       .  S
O1739      H1744   0.963       .  S
O1757     Zr1769   2.405       .  S
O1757      C1759   1.271       .  A
O1758      C1759   1.297       .  A
C1759      C2300   1.506       .  S
O1760     Zr1772   2.503       .  S
O1760      C1762   1.298       .  A
O1761     Zr1796   2.404       .  S
O1761      C1762   1.283       .  A
C1762      C2260   1.503       .  S
O1763      C1765   1.290   1_554  A
O1764     Zr1795   2.353   1_655  S
O1764      C1765   1.261   1_655  A
C1765      C2443   1.462       .  S
O1766     Zr1769   2.401   1_554  S
O1766      C1768   1.276       .  A
O1767     Zr1796   2.452       .  S
O1767      C1768   1.285       .  A
C1768      C2280   1.461       .  S
Zr1769     O1770   2.437   1_556  S
Zr1769     O1771   2.438       .  S
Zr1769     O1775   2.333       .  S
Zr1769     O1776   2.376   1_556  S
Zr1769     O1799   2.360       .  S
Zr1769     O1801   2.387       .  S
O1770      H1813   0.989       .  S
O1771      H1812   0.990       .  S
O1771      H1816   0.990       .  S
Zr1772     O1773   2.438       .  S
Zr1772     O1776   2.358       .  S
Zr1772     O1775   2.386   1_554  S
O1773      H1814   0.990       .  S
O1773      H1817   0.990       .  S
O1774      H1807   0.990       .  S
O1776     Zr1796   2.406       .  S
O1776      H1803   0.965       .  S
O1777     Zr1789   2.470       .  S
O1777      C1779   1.293       .  A
O1778     Zr1796   2.310       .  S
C1779      C2430   1.460       .  S
O1780     Zr1792   2.405       .  S
O1780      C1782   1.268       .  A
O1781     Zr1795   2.418   1_655  S
O1781      C1782   1.272       .  A
C1782      C2273   1.468       .  S
O1783     Zr1792   2.391   1_554  S
O1783      C1785   1.272       .  A
O1784      C1785   1.308       .  A
C1785      C2293   1.527       .  S
O1786     Zr1789   2.447   1_655  S
O1786      C1788   1.290       .  A
O1787     Zr1795   2.444       .  S
O1787      C1788   1.292   1_455  A
C1788      C2250   1.491       .  S
Zr1789     O1790   2.436   1_455  S
Zr1789     O1797   2.376   1_455  S
Zr1789     O1798   2.346   1_455  S
O1790      H1810   0.990       .  S
O1790      H1815   0.990       .  S
O1791      H1811   0.990       .  S
Zr1792     O1793   2.434       .  S
Zr1792     O1794   2.432       .  S
Zr1792     O1798   2.358       .  S
Zr1792     O1797   2.370       .  S
Zr1792     O1802   2.383   1_556  S
Zr1792     O1800   2.364       .  S
O1793      H1809   0.990       .  S
O1794      H1808   0.989   1_556  S
O1794      H1818   0.990       .  S
Zr1795     O1798   2.387   1_455  S
Zr1795     O1800   2.448   1_455  S
Zr1796     O1799   2.397   1_554  S
O1797      H1805   0.964       .  S
O1800      H1804   0.966       .  S
O1801      H1806   0.966       .  S
O1819     Zr1831   2.469       .  S
O1819      C1821   1.293       .  A
O1820     Zr1857   2.365       .  S
O1820      C1821   1.280       .  A
C1821      C2240   1.461       .  S
O1822     Zr1834   2.363       .  S
O1822      C1824   1.255       .  A
O1823     Zr1858   2.506       .  S
O1823      C1824   1.288       .  A
C1824      C2210   1.489       .  S
O1825     Zr1834   2.382       .  S
O1826     Zr1857   2.546       .  S
O1826      C1827   1.303       .  A
O1828      C1830   1.284       .  A
O1829     Zr1858   2.448       .  S
O1829      C1830   1.293       .  A
C1830      C2253   1.464       .  S
Zr1831     O1832   2.435       .  S
Zr1831     O1833   2.436       .  S
Zr1831     O1837   2.362       .  S
Zr1831     O1863   2.332       .  S
O1832      H1875   0.990       .  S
O1833      H1874   0.990       .  S
O1833      H1878   0.990       .  S
Zr1834     O1835   2.436       .  S
Zr1834     O1836   2.432       .  S
Zr1834     O1838   2.385       .  S
Zr1834     O1862   2.367       .  S
Zr1834     O1864   2.374       .  S
O1835      H1876   0.989       .  S
O1835      H1879   0.990       .  S
O1836      H1869   0.990       .  S
O1837     Zr1857   2.382       .  S
O1838     Zr1858   2.408       .  S
O1838      H1865   0.966       .  S
O1839      C1841   1.270   1_455  A
O1840     Zr1858   2.517       .  S
O1840      C1841   1.297       .  A
C1841      C2350   1.506       .  S
O1842     Zr1854   2.439       .  S
O1843     Zr1857   2.460       .  S
O1843      C1844   1.296       .  A
C1844      C2263   1.485       .  S
O1845     Zr1854   2.510       .  S
O1845      C1847   1.302       .  A
O1846     Zr1858   2.333       .  S
O1846      C1847   1.275       .  A
C1847      C2230   1.457       .  S
O1848     Zr1851   2.384       .  S
O1848      C1850   1.263       .  A
O1849     Zr1857   2.503       .  S
O1849      C1850   1.291       .  A
C1850      C2220   1.509       .  S
Zr1851     O1852   2.436       .  S
Zr1851     O1853   2.431       .  S
Zr1851     O1860   2.387       .  S
Zr1851     O1863   2.375       .  S
O1852      H1877   0.990       .  S
O1853      H1873   0.990       .  S
Zr1854     O1855   2.435       .  S
Zr1854     O1856   2.437       .  S
Zr1854     O1859   2.347       .  S
Zr1854     O1864   2.355       .  S
Zr1854     O1862   2.391       .  S
O1855      H1871   0.990       .  S
O1856      H1870   0.990       .  S
O1856      H1880   0.989       .  S
Zr1857     O1860   2.413       .  S
Zr1857     O1863   2.415       .  S
Zr1858     O1859   2.401       .  S
Zr1858     O1861   2.384       .  S
Zr1858     O1864   2.397       .  S
O1859      H1867   0.965       .  S
O1862      H1866   0.966       .  S
O1863      H1868   0.960       .  S
O1881     Zr1893   2.390       .  S
O1881      C1883   1.275       .  A
O1882     Zr1919   2.459   1_554  S
O1882      C1883   1.295       .  A
C1883      C2283   1.461       .  S
O1884     Zr1896   2.405   1_554  S
O1884      C1886   1.283       .  A
O1885     Zr1920   2.502       .  S
O1885      C1886   1.302       .  A
C1886      C2203   1.497       .  S
O1887     Zr1896   2.478       .  S
O1887      C2705   1.294   1_545  A
O1888     Zr1919   2.529       .  S
O1888      C1889   1.306       .  A
C1889      O2703   1.294       .  A
C1889      C2420   1.540       .  S
O1890     Zr1893   2.414       .  S
O1890      C2708   1.281       .  A
O1891     Zr1920   2.450       .  S
O1891      C1892   1.291       .  A
C1892      O2706   1.281       .  A
C1892      C2180   1.469       .  S
Zr1893     O1894   2.435       .  S
Zr1893     O1895   2.434       .  S
Zr1893     O1899   2.381       .  S
Zr1893     O2716   2.344       .  S
Zr1893     O1923   2.370       .  S
Zr1893     O1925   2.366       .  S
O1894      H1937   0.991       .  S
O1895      H1936   0.990       .  S
O1895      H1940   0.990       .  S
Zr1896     O1897   2.437   1_556  S
Zr1896     O1898   2.435       .  S
Zr1896     O1900   2.381   1_556  S
Zr1896     O2715   2.362   1_546  S
Zr1896     O1924   2.349       .  S
Zr1896     O1926   2.385       .  S
O1897      H1938   0.989       .  S
O1897      H1941   0.990       .  S
O1898      H1931   0.990       .  S
O1899     Zr2712   2.362   1_554  S
O1899     Zr1919   2.391   1_554  S
O1900     Zr2709   2.344   1_545  S
O1900     Zr1920   2.409       .  S
O1900      H1927   0.964       .  S
O1901     Zr2729   2.456   1_544  S
O1901      C1903   1.289       .  A
O1902     Zr1920   2.559       .  S
O1902      C1903   1.311       .  A
C1903      C2410   1.551       .  S
O1904     Zr1916   2.405       .  S
O1904      C2722   1.283   1_545  A
O1905     Zr1919   2.474       .  S
O1905      C1906   1.296       .  A
C1906      O2720   1.283       .  A
C1906      C2173   1.496       .  S
O1907     Zr1916   2.397       .  S
O1907      C1909   1.279       .  A
O1908     Zr1920   2.435   1_556  S
O1908      C1909   1.290       .  A
C1909      C2270   1.450       .  S
O1910     Zr1913   2.426       .  S
O1910      C1912   1.277       .  A
O1911     Zr1919   2.490       .  S
O1911      C1912   1.292       .  A
C1912      C2190   1.501       .  S
Zr1913     O2717   2.456   1_556  S
Zr1913     O1914   2.447       .  S
Zr1913     O1915   2.437   1_556  S
Zr1913     O2737   2.354       .  S
Zr1913     O1922   2.375       .  S
Zr1913     O1925   2.394   1_556  S
Zr1913     O1923   2.378   1_556  S
O1914      H2750   0.990       .  S
O1914      H1939   0.991       .  S
O1915      H1935   0.990       .  S
Zr1916     O1917   2.434       .  S
Zr1916     O1918   2.434       .  S
Zr1916     O2738   2.345   1_545  S
Zr1916     O1921   2.375       .  S
Zr1916     O1926   2.364       .  S
Zr1916     O1924   2.372       .  S
O1917      H1933   0.990       .  S
O1918      H1932   0.990       .  S
O1918      H1942   0.990       .  S
Zr1919     O1922   2.404       .  S
Zr1919     O2740   2.402       .  S
Zr1919     O1925   2.433   1_556  S
Zr1920     O1921   2.387   1_554  S
Zr1920     O2739   2.394   1_545  S
Zr1920     O1926   2.423   1_554  S
O1921     Zr2729   2.354   1_545  S
O1921      H1929   0.965       .  S
O1922     Zr2732   2.345       .  S
O1923     Zr2736   2.394       .  S
O1924     Zr2735   2.402   1_545  S
O1924      H1928   0.966       .  S
O1925      H1930   0.966       .  S
H1934      O2730   0.990       .  S
O1943     Zr1955   2.370       .  S
O1943      C1945   1.273       .  A
O1944     Zr2797   2.545   1_545  S
O1944      C1945   1.309       .  A
C1945      C2160   1.510       .  S
O1946     Zr2774   2.498   1_545  S
O1946      C1948   1.301       .  A
O1947     Zr2798   2.378       .  S
O1947      C1948   1.277       .  A
C1948      C2183   1.493       .  S
O1949     Zr1958   2.470       .  S
O1949      C1951   1.293       .  A
O1950     Zr1981   2.288       .  S
O1950      C1951   1.265       .  A
C1951      C2340   1.459       .  S
O1952     Zr1955   2.382       .  S
O1952      C1954   1.262       .  A
O1953     Zr2798   2.491       .  S
O1953      C1954   1.287       .  A
C1954      C2213   1.476       .  S
Zr1955     O1956   2.433       .  S
Zr1955     O1957   2.433       .  S
Zr1955     O1961   2.352       .  S
Zr1955     O1962   2.369       .  S
Zr1955     O1985   2.363       .  S
Zr1955     O1987   2.372       .  S
O1956      H1999   0.990       .  S
O1957      H1998   0.990       .  S
O1957      H2002   0.990       .  S
Zr1958     O2762   2.497       .  S
Zr1958     O2775   2.435       .  S
Zr1958     O1960   2.435       .  S
Zr1958     O2778   2.346       .  S
Zr1958     O2777   2.393       .  S
Zr1958     O1986   2.355       .  S
Zr1958     O1988   2.376       .  S
O1959     Zr2774   2.435   1_545  S
O1959      H2000   0.990       .  S
O1959      H2003   0.990       .  S
O1960      H1993   0.990       .  S
O1961     Zr2774   2.393   1_545  S
O1961     Zr2797   2.392   1_545  S
O1962     Zr2774   2.345   1_545  S
O1962     Zr2798   2.385       .  S
O1962      H1989   0.965       .  S
O1963     Zr1975   2.447       .  S
O1963      C1965   1.290       .  A
O1964     Zr2798   2.273       .  S
O1964      C2781   1.270   1_545  A
C1965      O2780   1.270       .  A
C1965      C2330   1.427       .  S
O1966     Zr1978   2.393       .  S
O1966      C1968   1.265       .  A
O1967     Zr1981   2.497       .  S
O1967      C1968   1.289       .  A
C1968      C2223   1.502       .  S
O1969     Zr1978   2.387       .  S
O1969      C1971   1.277       .  A
O1970     Zr1982   2.493       .  S
O1970      C1971   1.299       .  A
C1971      C2153   1.491       .  S
O1972     Zr1975   2.465       .  S
O1972      C1974   1.292       .  A
O1973     Zr1981   2.406       .  S
O1973      C1974   1.283       .  A
C1974      C2170   1.470       .  S
Zr1975     O1976   2.434       .  S
Zr1975     O2793   2.434       .  S
Zr1975     O1983   2.380       .  S
Zr1975     O1984   2.353       .  S
Zr1975     O2803   2.374       .  S
Zr1975     O2801   2.368       .  S
O1976      H1996   0.990       .  S
O1976      H2001   0.990       .  S
O1977     Zr2791   2.437   1_545  S
O1977      H1997   0.990       .  S
Zr1978     O1979   2.434       .  S
Zr1978     O1980   2.430       .  S
Zr1978     O1984   2.385       .  S
Zr1978     O1983   2.344       .  S
Zr1978     O1988   2.372       .  S
Zr1978     O1986   2.366       .  S
O1979      H1995   0.990       .  S
O1980      H1994   0.990       .  S
O1980      H2004   0.990       .  S
Zr1981     O2760   2.545       .  S
Zr1981     O2777   2.392       .  S
Zr1981     O1984   2.390       .  S
Zr1981     O1986   2.419       .  S
Zr1981     O2803   2.365       .  S
Zr1982     O2763   2.382       .  S
Zr1982     O2769   2.487       .  S
Zr1982     O2780   2.309       .  S
Zr1982     O2778   2.392       .  S
Zr1982     O1983   2.383       .  S
Zr1982     O2801   2.385       .  S
Zr1982     O1988   2.370       .  S
O1983      H1991   0.966       .  S
O1985     Zr2791   2.372   1_545  S
O1985     Zr2798   2.387       .  S
O1986      H1990   0.961       .  S
O1987     Zr2791   2.367   1_545  S
O1987     Zr2797   2.365   1_545  S
O1987      H1992   0.965       .  S
O2005     Zr2017   2.495       .  S
O2005      C2007   1.298       .  A
O2006     Zr2043   2.429   1_554  S
O2006      C2007   1.290       .  A
C2007      C2200   1.485       .  S
O2008     Zr2020   2.380   1_554  S
O2008      C2010   1.272       .  A
O2009     Zr2044   2.550       .  S
O2009      C2010   1.308       .  A
C2010      C2303   1.509   1_554  S
O2011     Zr2020   2.373       .  S
O2011      C2013   1.254       .  A
O2012     Zr2043   2.529       .  S
O2012      C2013   1.297       .  A
C2013      C2400   1.498       .  S
O2014     Zr2017   2.462       .  S
O2014      C2016   1.293       .  A
O2015     Zr2044   2.471       .  S
O2015      C2016   1.298       .  A
C2016      C2140   1.499       .  S
Zr2017     O2018   2.435       .  S
Zr2017     O2019   2.435       .  S
Zr2017     O2023   2.372       .  S
Zr2017     O2024   2.390       .  S
Zr2017     O2047   2.377       .  S
Zr2017     O2049   2.367       .  S
O2018      H2061   0.990       .  S
O2019      H2060   0.990       .  S
O2019      H2064   0.990       .  S
Zr2020     O2021   2.437   1_556  S
Zr2020     O2022   2.433       .  S
Zr2020     O2024   2.369   1_556  S
Zr2020     O2023   2.379   1_556  S
Zr2020     O2048   2.385       .  S
Zr2020     O2050   2.353       .  S
O2021      H2062   0.990       .  S
O2021      H2065   0.989       .  S
O2022      H2055   0.990       .  S
O2023     Zr2043   2.409   1_554  S
O2024     Zr2044   2.397       .  S
O2024      H2051   0.966       .  S
O2025     Zr2037   2.385       .  S
O2025      C2027   1.262       .  A
O2026     Zr2044   2.515       .  S
O2026      C2027   1.291       .  A
C2027      C2393   1.511       .  S
O2028     Zr2040   2.467       .  S
O2028      C2030   1.296       .  A
O2029     Zr2043   2.466       .  S
O2029      C2030   1.298       .  A
C2030      C2130   1.498       .  S
O2031     Zr2040   2.540       .  S
O2031      C2033   1.307       .  A
O2032     Zr2044   2.373   1_556  S
O2032      C2033   1.281       .  A
C2033      C2193   1.494       .  S
O2034     Zr2037   2.391   1_556  S
O2034      C2036   1.276       .  A
O2035     Zr2043   2.542       .  S
O2035      C2036   1.309       .  A
C2036      C2290   1.523       .  S
Zr2037     O2038   2.434   1_554  S
Zr2037     O2039   2.430       .  S
Zr2037     O2045   2.381   1_554  S
Zr2037     O2046   2.355   1_554  S
Zr2037     O2049   2.343       .  S
Zr2037     O2047   2.389       .  S
O2038      H2058   0.988       .  S
O2038      H2063   0.986       .  S
O2039      H2059   0.991       .  S
Zr2040     O2041   2.435       .  S
Zr2040     O2042   2.434       .  S
Zr2040     O2046   2.405       .  S
Zr2040     O2045   2.338       .  S
Zr2040     O2050   2.359       .  S
Zr2040     O2048   2.363       .  S
O2041      H2057   0.990       .  S
O2042      H2056   0.990       .  S
O2042      H2066   0.990       .  S
Zr2043     O2046   2.406       .  S
Zr2043     O2048   2.426       .  S
Zr2043     O2049   2.386   1_556  S
Zr2044     O2045   2.424   1_554  S
Zr2044     O2047   2.413       .  S
Zr2044     O2050   2.377   1_554  S
O2045      H2053   0.962       .  S
O2048      H2052   0.965       .  S
O2049      H2054   0.963       .  S
O2067     Zr2079   2.389       .  S
O2067      C2069   1.275       .  A
O2068     Zr2105   2.464       .  S
O2068      C2069   1.293       .  A
C2069      C2320   1.456       .  S
O2070     Zr2082   2.461       .  S
O2070      C2072   1.291       .  A
O2071     Zr2106   2.469       .  S
O2071      C2072   1.296       .  A
C2072      C2133   1.496       .  S
O2073     Zr2082   2.414       .  S
O2073      C2075   1.282       .  A
O2074     Zr2105   2.418       .  S
O2074      C2075   1.290       .  A
C2075      C2243   1.463       .  S
O2076     Zr2079   2.393       .  S
O2076      C2078   1.279       .  A
O2077     Zr2106   2.531       .  S
O2077      C2078   1.307       .  A
C2078      C2163   1.516       .  S
Zr2079     O2080   2.432       .  S
Zr2079     O2081   2.435       .  S
Zr2079     O2085   2.371       .  S
Zr2079     O2086   2.370       .  S
Zr2079     O2109   2.348       .  S
Zr2079     O2111   2.361       .  S
O2080      H2123   0.990       .  S
O2081      H2122   0.990       .  S
O2081      H2126   0.990       .  S
Zr2082     O2083   2.435       .  S
Zr2082     O2084   2.434       .  S
Zr2082     O2086   2.365       .  S
Zr2082     O2085   2.381       .  S
Zr2082     O2110   2.392       .  S
Zr2082     O2112   2.340       .  S
O2083      H2124   0.990       .  S
O2083      H2127   0.990       .  S
O2084      H2117   0.990       .  S
O2085     Zr2105   2.404       .  S
O2086     Zr2106   2.387       .  S
O2086      H2113   0.965       .  S
O2087     Zr2099   2.376       .  S
O2087      C2089   1.276       .  A
O2088     Zr2106   2.437       .  S
O2088      C2089   1.294       .  A
C2089      C2233   1.449       .  S
O2090     Zr2102   2.409       .  S
O2090      C2092   1.282       .  A
O2091     Zr2105   2.489       .  S
O2091      C2092   1.299       .  A
C2092      C2150   1.505       .  S
O2093     Zr2102   2.411       .  S
O2093      C2095   1.271       .  A
O2094     Zr2106   2.473       .  S
O2094      C2095   1.287       .  A
C2095      C2313   1.490       .  S
O2096     Zr2099   2.454       .  S
O2096      C2098   1.290       .  A
O2097     Zr2105   2.465       .  S
O2097      C2098   1.295       .  A
C2098      C2143   1.493       .  S
Zr2099     O2100   2.434       .  S
Zr2099     O2101   2.434       .  S
Zr2099     O2107   2.380       .  S
Zr2099     O2108   2.343       .  S
Zr2099     O2111   2.340       .  S
Zr2099     O2109   2.391       .  S
O2100      H2120   0.990       .  S
O2100      H2125   0.990       .  S
O2101      H2121   0.990       .  S
Zr2102     O2103   2.439       .  S
Zr2102     O2104   2.446       .  S
Zr2102     O2108   2.361       .  S
Zr2102     O2107   2.371       .  S
Zr2102     O2112   2.366       .  S
Zr2102     O2110   2.352       .  S
O2103      H2119   0.990       .  S
O2104      H2118   0.990       .  S
O2104      H2128   0.990       .  S
Zr2105     O2108   2.370       .  S
Zr2105     O2110   2.397       .  S
Zr2105     O2111   2.378       .  S
Zr2106     O2107   2.433       .  S
Zr2106     O2109   2.395       .  S
Zr2106     O2112   2.392       .  S
O2107      H2115   0.966       .  S
O2110      H2114   0.965       .  S
O2111      H2116   0.965       .  S
C2129      C2130   1.404       .  A
C2129      C2134   1.401       .  A
C2129      H2136   1.084       .  S
C2130      C2131   1.415       .  A
C2131      C2132   1.414       .  A
C2131     Br2138   1.918       .  S
C2132      C2133   1.409       .  A
C2132      H2137   1.083       .  S
C2133      C2134   1.411       .  A
C2134     Br2135   1.907       .  S
C2139      C2140   1.407       .  A
C2139      C2144   1.411       .  A
C2139      H2146   1.083       .  S
C2140      C2141   1.416       .  A
C2141      C2142   1.408       .  A
C2141     Br2148   1.920       .  S
C2142      C2143   1.404       .  A
C2142      H2147   1.084       .  S
C2143      C2144   1.413       .  A
C2144     Br2145   1.918       .  S
C2149      C2150   1.417       .  A
C2149      C2154   1.402       .  A
C2149      H2156   1.083       .  S
C2150      C2151   1.410       .  A
C2151      C2152   1.409       .  A
C2151     Br2158   1.917       .  S
C2152      C2153   1.416       .  A
C2152      H2157   1.084       .  S
C2153      C2154   1.404       .  A
C2154     Br2155   1.918       .  S
C2159      C2160   1.422       .  A
C2159      C2164   1.415       .  A
C2159      H2166   1.084       .  S
C2160      C2161   1.405       .  A
C2161      C2162   1.409       .  A
C2161     Br2168   1.908       .  S
C2162      C2163   1.420       .  A
C2162      H2167   1.084       .  S
C2163      C2164   1.409       .  A
C2164     Br2165   1.916       .  S
C2169      C2170   1.404       .  A
C2169      C2174   1.409       .  A
C2169      H2176   1.083       .  S
C2170      C2987   1.401       .  A
C2171      C2986   1.401   1_545  A
C2171      C2172   1.392       .  A
C2171     Br2178   1.922       .  S
C2172      C2989   1.413   1_545  A
C2172      H2177   1.083       .  S
C2173      C2988   1.413       .  A
C2173      C2174   1.415       .  A
C2174     Br2175   1.910       .  S
C2179      C2180   1.395       .  A
C2179      C2184   1.401       .  A
C2179      H2186   1.084       .  S
C2180      C2181   1.409       .  A
C2181      C2182   1.397       .  A
C2181     Br2188   1.920       .  S
C2182      C2183   1.404       .  A
C2182      H2187   1.083       .  S
C2183      C2184   1.428       .  A
C2184     Br2185   1.926       .  S
C2189      C2190   1.399       .  A
C2189      C2194   1.388       .  A
C2189      H2196   1.074       .  S
C2190      C2191   1.412       .  A
C2191      C2192   1.421       .  A
C2191     Br2198   1.906       .  S
C2192      C2193   1.413       .  A
C2192      H2197   1.081       .  S
C2193      C2194   1.411       .  A
C2194     Br2195   1.916       .  S
C2199      C2200   1.412       .  A
C2199      C2204   1.414       .  A
C2199      H2206   1.083       .  S
C2200      C2201   1.401       .  A
C2201      C2202   1.397       .  A
C2201     Br2208   1.914       .  S
C2202      C2203   1.413       .  A
C2202      H2207   1.083       .  S
C2203      C2204   1.406       .  A
C2204     Br2205   1.914       .  S
C2209      C2210   1.406       .  A
C2209      C2214   1.397       .  A
C2209      H2216   1.084       .  S
C2210      C2211   1.417       .  A
C2211      C2212   1.397       .  A
C2211     Br2218   1.896       .  S
C2212      C2213   1.399       .  A
C2212      H2217   1.085       .  S
C2213      C2214   1.409       .  A
C2214     Br2215   1.900       .  S
C2219      C2220   1.409       .  A
C2219      C2224   1.407       .  A
C2219      H2226   1.079       .  S
C2220      C2221   1.421       .  A
C2221      C2222   1.410       .  A
C2221     Br2228   1.919       .  S
C2222      C2223   1.407       .  A
C2222      H2227   1.082       .  S
C2223      C2224   1.417       .  A
C2224     Br2225   1.920       .  S
C2229      C2230   1.401       .  A
C2229      C2234   1.398       .  A
C2229      H2236   1.084       .  S
C2230      C2231   1.418       .  A
C2231      C2232   1.377       .  A
C2231     Br2238   1.911       .  S
C2232      C2233   1.386       .  A
C2232      H2237   1.085       .  S
C2233      C2234   1.411       .  A
C2234     Br2235   1.918       .  S
C2239      C2240   1.404       .  A
C2239      C2244   1.400       .  A
C2239      H2246   1.084       .  S
C2240      C2241   1.411       .  A
C2241      C2242   1.377       .  A
C2241     Br2248   1.916       .  S
C2242      C2243   1.395       .  A
C2242      H2247   1.084       .  S
C2243      C2244   1.413       .  A
C2244     Br2245   1.919       .  S
C2249      C2250   1.411       .  A
C2249      C2254   1.400       .  A
C2250      C2251   1.417       .  A
C2251      C2252   1.398       .  A
C2251     Br2258   1.915       .  S
C2252      C2253   1.400       .  A
C2252      H2257   1.084       .  S
C2253      C2254   1.403       .  A
C2259      C2260   1.411       .  A
C2259      C2264   1.409       .  A
C2259      H2266   1.083       .  S
C2260      C2261   1.424       .  A
C2261      C2262   1.399       .  A
C2261     Br2268   1.924       .  S
C2262      C2263   1.400       .  A
C2262      H2267   1.084       .  S
C2263      C2264   1.409       .  A
C2264     Br2265   1.915       .  S
C2269      C2270   1.399       .  A
C2269      C2274   1.395       .  A
C2269      H2276   1.083       .  S
C2270      C2271   1.399       .  A
C2271      C2272   1.391       .  A
C2271     Br2278   1.920       .  S
C2272      C2273   1.408       .  A
C2272      H2277   1.084       .  S
C2273      C2274   1.411       .  A
C2274     Br2275   1.919       .  S
C2279      C2280   1.396       .  A
C2279      C2284   1.400       .  A
C2279      H2286   1.083       .  S
C2280      C2281   1.405       .  A
C2281      C2282   1.387       .  A
C2281     Br2288   1.900       .  S
C2282      C2283   1.392       .  A
C2282      H2287   1.084       .  S
C2283      C2284   1.414       .  A
C2284     Br2285   1.903       .  S
C2289      C2290   1.423       .  A
C2289      C2294   1.411   1_556  A
C2289      H2296   1.083       .  S
C2290      C2291   1.407       .  A
C2291      C2292   1.415   1_556  A
C2291     Br2298   1.918       .  S
C2292      C2293   1.427       .  A
C2292      H2297   1.081       .  S
C2293      C2294   1.411       .  A
C2294     Br2295   1.913       .  S
C2299      C2300   1.406       .  A
C2299      C2304   1.412   1_556  A
C2299      H2306   1.082   1_556  S
C2300      C2301   1.412       .  A
C2301      C2302   1.417       .  A
C2301     Br2308   1.913       .  S
C2302      C2303   1.409       .  A
C2302      H2307   1.080       .  S
C2303      C2304   1.420   1_556  A
C2304     Br2305   1.919       .  S
C2309      C2310   1.416       .  A
C2309      C2314   1.410       .  A
C2309      H2316   1.084       .  S
C2310      C2311   1.403       .  A
C2311      C2312   1.388       .  A
C2311     Br2318   1.914       .  S
C2312      C2313   1.403       .  A
C2312      H2317   1.073       .  S
C2313      C2314   1.407       .  A
C2314     Br2315   1.916       .  S
C2319      C2320   1.409       .  A
C2319      C2324   1.410       .  A
C2319      H2326   1.083       .  S
C2320      C2321   1.401       .  A
C2321      C2322   1.387       .  A
C2321     Br2328   1.925       .  S
C2322      C2323   1.398       .  A
C2322      H2327   1.078       .  S
C2323      C2324   1.409       .  A
C2324     Br2325   1.914       .  S
C2329      C3146   1.413       .  A
C2329      C2334   1.393       .  A
C2329      H2336   1.084       .  S
C2330      C3145   1.408       .  A
C2330      C2331   1.391       .  A
C2331      C2332   1.372       .  A
C2331     Br2338   1.920       .  S
C2332      C3149   1.405       .  A
C2332      H2337   1.078       .  S
C2333      C3148   1.404       .  A
C2333      C2334   1.398   1_565  A
C2334     Br2335   1.926       .  S
C2339      C3156   1.418       .  A
C2339      C2344   1.374       .  A
C2339      H2346   1.083       .  S
C2340      C3155   1.418       .  A
C2340      C2341   1.398       .  A
C2341      C2342   1.383       .  A
C2341     Br2348   1.922       .  S
C2342      C3159   1.414       .  A
C2342      H2347   1.084       .  S
C2343      C3158   1.414       .  A
C2343      C2344   1.395       .  A
C2344     Br2345   1.927       .  S
C2349      C2350   1.408       .  A
C2349      C2354   1.413       .  A
C2349      H2356   1.083       .  S
C2350      C2351   1.420       .  A
C2352      H2357   1.083       .  S
C2353      C2354   1.416       .  A
C2354     Br2355   1.917       .  S
C2359      C2360   1.406       .  A
C2360      C2361   1.416       .  A
C2361      C2362   1.416   1_655  A
C2361     Br2368   1.916   1_655  S
C2362      C2363   1.409   1_455  A
C2362      H2367   1.083       .  S
C2364     Br2365   1.917       .  S
C2369      C2374   1.385       .  A
C2369      H2376   1.084       .  S
C2370      C2371   1.410       .  A
C2371      C2372   1.397       .  A
C2371     Br2378   1.921       .  S
C2372      C2373   1.400       .  A
C2372      H2377   1.084       .  S
C2374     Br2375   1.919       .  S
C2379      C3196   1.404       .  A
C2379      C2384   1.382       .  A
C2379      H2386   1.084       .  S
C2380      C3195   1.404   1_545  A
C2381      C2382   1.390       .  A
C2381     Br2388   1.923       .  S
C2382      C2383   1.397       .  A
C2382      H2387   1.084       .  S
C2384     Br2385   1.921       .  S
C2389      C2390   1.409   1_554  A
C2389      C2394   1.410       .  A
C2389      H2396   1.080       .  S
C2390      C2391   1.416       .  A
C2391      C2392   1.412       .  A
C2391     Br2398   1.918       .  S
C2392      C2393   1.408   1_556  A
C2392      H2397   1.078       .  S
C2393      C2394   1.418       .  A
C2394     Br2395   1.923       .  S
C2399      C2400   1.401   1_554  A
C2399      C2404   1.409       .  A
C2399      H2406   1.080       .  S
C2400      C2401   1.425       .  A
C2401      C2402   1.402       .  A
C2401     Br2408   1.924       .  S
C2402      C2403   1.399   1_556  A
C2402      H2407   1.083       .  S
C2403      C2404   1.422       .  A
C2404     Br2405   1.920       .  S
C2409      C3226   1.412       .  A
C2409      C2414   1.413       .  A
C2409      H2416   1.083       .  S
C2410      C3225   1.412       .  A
C2410      C2411   1.426       .  A
C2411      C2412   1.442       .  A
C2411     Br2418   1.910       .  S
C2412      C2413   1.421       .  A
C2412      H2417   1.083       .  S
C2413      C3230   1.422       .  A
C2414      C3229   1.422       .  A
C2414     Br2415   1.921       .  S
C2419      C2420   1.423       .  A
C2419      C2424   1.441       .  A
C2419      H2426   1.083       .  S
C2420      C2421   1.413       .  A
C2421      C2422   1.407       .  A
C2421     Br3244   1.904   1_556  S
C2422      C2423   1.408       .  A
C2422      H3243   1.083   1_556  S
C2423      C2424   1.423       .  A
C2424     Br2425   1.913       .  S
H2427      C3238   1.083   1_554  S
Br2428     C3237   1.904   1_554  S
C2429      C2430   1.418   1_654  A
C2429      C2434   1.381       .  A
C2429      H2436   1.083       .  S
C2431      C2432   1.384       .  A
C2431     Br2438   1.922       .  S
C2432      C2433   1.409   1_556  A
C2432      H2437   1.077       .  S
C2434     Br2435   1.922       .  S
C2439      C2440   1.391       .  A
C2439      C2444   1.385       .  A
C2439      H2446   1.084       .  S
C2441      C2442   1.385       .  A
C2441     Br2448   1.916       .  S
C2442      H2447   1.083       .  S
C2443      C2444   1.424       .  A
C2444     Br2445   1.927       .  S
O2449     Zr2461   2.374   1_554  S
O2449      C2451   1.258       .  A
O2450      C2451   1.298       .  A
C2451      C3219   1.492       .  S
O2452     Zr2464   2.422       .  S
O2453     Zr2488   2.401       .  S
O2453      C2454   1.284       .  A
O2455     Zr2464   2.452       .  S
O2456     Zr2487   2.351   1_455  S
O2456      C2457   1.278   1_554  A
C2457      C3256   1.453       .  S
O2458     Zr2461   2.389       .  S
O2459     Zr2488   2.584       .  S
O2459      C2460   1.316       .  A
C2460      C3239   1.533       .  S
Zr2461     O2462   2.434       .  S
Zr2461     O2463   2.441   1_556  S
Zr2461     O2467   2.365       .  S
Zr2461     O2468   2.376       .  S
Zr2461     O2493   2.385   1_556  S
O2462      H2505   0.990       .  S
O2463      H2504   0.989       .  S
O2463      H2508   0.990       .  S
Zr2464     O2465   2.436       .  S
Zr2464     O2468   2.383       .  S
Zr2464     O2467   2.342       .  S
O2465      H2506   0.990       .  S
O2465      H2509   0.990       .  S
O2466      H2499   0.990       .  S
O2468      H2495   0.966       .  S
O2469     Zr2481   2.463       .  S
O2470     Zr2488   2.343       .  S
O2470      C2471   1.269   1_556  A
C2471      C3249   1.445       .  S
O2472     Zr2484   2.421   1_544  S
O2473     Zr2487   2.583       .  S
O2473      C2474   1.316       .  A
C2474      C3229   1.546       .  S
O2475     Zr2484   2.406       .  S
O2475      C2477   1.268       .  A
O2476      C2477   1.292       .  A
C2477      C3206   1.509       .  S
O2478     Zr2481   2.419       .  S
O2479     Zr2487   2.389       .  S
O2479      C2480   1.282       .  A
C2480      C3196   1.451       .  S
Zr2481     O2482   2.433       .  S
Zr2481     O2489   2.322       .  S
Zr2481     O2490   2.392       .  S
O2482      H2502   0.990       .  S
O2482      H2507   0.990       .  S
O2483      H2503   0.990       .  S
Zr2484     O2485   2.431   1_556  S
Zr2484     O2486   2.436       .  S
Zr2484     O2490   2.369   1_556  S
Zr2484     O2489   2.381   1_556  S
Zr2484     O2494   2.385       .  S
O2485      H2501   0.990       .  S
O2486      H2500   0.990       .  S
O2486      H2510   0.990       .  S
Zr2487     O2492   2.382   1_554  S
Zr2488     O2491   2.378   1_556  S
O2489      H2497   0.952       .  S
O2492      H2496   0.966       .  S
O2493      H2498   0.964       .  S
O2511     Zr2523   2.409       .  S
O2512      C2513   1.297       .  A
O2514     Zr2526   2.453       .  S
O2514      C2516   1.290       .  A
O2515     Zr2550   2.302       .  S
O2515      C2516   1.269       .  A
C2516      C3149   1.435       .  S
O2517     Zr2526   2.438       .  S
O2518     Zr2549   2.367       .  S
O2518      C2519   1.278       .  A
C2519      C3199   1.432       .  S
O2520     Zr2523   2.353       .  S
O2520      C2522   1.271       .  A
O2521      C2522   1.301       .  A
C2522      C3126   1.471       .  S
Zr2523     O2524   2.435       .  S
Zr2523     O2525   2.437       .  S
Zr2523     O2529   2.353       .  S
Zr2523     O2530   2.358       .  S
Zr2523     O2553   2.374       .  S
O2524      H2567   0.990       .  S
O2525      H2566   0.989       .  S
O2525      H2570   0.990       .  S
Zr2526     O2528   2.437       .  S
Zr2526     O2556   2.366       .  S
O2527      H2568   0.990       .  S
O2527      H2571   0.990       .  S
O2528      H2561   0.990       .  S
O2530      H2557   0.966       .  S
O2531      C2533   1.287       .  A
O2532      C2533   1.281       .  A
C2533      C3189   1.446       .  S
O2534     Zr2546   2.389       .  S
O2534      C2536   1.268       .  A
O2535     Zr2549   2.482       .  S
O2535      C2536   1.292       .  A
C2536      C3139   1.460       .  S
O2537      C2539   1.265   1_455  A
O2538     Zr2550   2.540       .  S
O2538      C2539   1.302       .  A
C2539      C3176   1.501       .  S
O2540     Zr2543   2.448       .  S
O2540      C2542   1.288       .  A
O2541     Zr2549   2.310       .  S
O2541      C2542   1.268       .  A
C2542      C3159   1.447       .  S
Zr2543     O2544   2.434       .  S
Zr2543     O2552   2.370       .  S
O2544      H2564   0.989       .  S
O2544      H2569   0.990       .  S
Zr2546     O2547   2.431       .  S
Zr2546     O2548   2.438       .  S
Zr2546     O2552   2.359       .  S
Zr2546     O2554   2.380       .  S
O2547      H2563   0.989       .  S
O2548      H2572   0.990       .  S
Zr2549     O2552   2.389       .  S
Zr2549     O2554   2.380       .  S
Zr2550     O2551   2.376   1_655  S
Zr2550     O2556   2.372       .  S
O2551      H2559   0.966       .  S
O2554      H2558   0.964       .  S
O2555      H2560   0.963       .  S
O2573     Zr2585   2.405       .  S
O2573      C2575   1.271       .  A
O2574      C2575   1.297       .  A
C2575      C3116   1.506       .  S
O2576     Zr2588   2.503       .  S
O2576      C2578   1.298       .  A
O2577     Zr2612   2.404       .  S
O2577      C2578   1.283       .  A
C2578      C3076   1.503       .  S
O2579      C2581   1.290   1_554  A
O2580     Zr2611   2.353   1_655  S
O2580      C2581   1.261   1_655  A
C2581      C3259   1.462       .  S
O2582     Zr2585   2.401   1_554  S
O2582      C2584   1.276       .  A
O2583     Zr2612   2.452       .  S
O2583      C2584   1.285       .  A
C2584      C3096   1.461       .  S
Zr2585     O2586   2.437   1_556  S
Zr2585     O2587   2.438       .  S
Zr2585     O2591   2.333       .  S
Zr2585     O2592   2.376   1_556  S
Zr2585     O2615   2.360       .  S
Zr2585     O2617   2.387       .  S
O2586      H2629   0.989       .  S
O2587      H2628   0.990       .  S
O2587      H2632   0.990       .  S
Zr2588     O2589   2.438       .  S
Zr2588     O2592   2.358       .  S
Zr2588     O2591   2.386   1_554  S
O2589      H2630   0.990       .  S
O2589      H2633   0.990       .  S
O2590      H2623   0.990       .  S
O2592     Zr2612   2.406       .  S
O2592      H2619   0.965       .  S
O2593     Zr2605   2.470       .  S
O2593      C2595   1.293       .  A
O2594     Zr2612   2.310       .  S
C2595      C3246   1.460       .  S
O2596     Zr2608   2.405       .  S
O2596      C2598   1.268       .  A
O2597     Zr2611   2.418   1_655  S
O2597      C2598   1.272       .  A
C2598      C3089   1.468       .  S
O2599     Zr2608   2.391   1_554  S
O2599      C2601   1.272       .  A
O2600      C2601   1.308       .  A
C2601      C3109   1.528       .  S
O2602     Zr2605   2.447   1_655  S
O2602      C2604   1.290       .  A
O2603     Zr2611   2.443       .  S
O2603      C2604   1.292   1_455  A
C2604      C3066   1.491       .  S
Zr2605     O2606   2.436   1_455  S
Zr2605     O2613   2.376   1_455  S
Zr2605     O2614   2.346   1_455  S
O2606      H2626   0.990       .  S
O2606      H2631   0.990       .  S
O2607      H2627   0.990       .  S
Zr2608     O2609   2.434       .  S
Zr2608     O2610   2.432       .  S
Zr2608     O2614   2.358       .  S
Zr2608     O2613   2.370       .  S
Zr2608     O2618   2.383   1_556  S
Zr2608     O2616   2.364       .  S
O2609      H2625   0.990       .  S
O2610      H2624   0.989   1_556  S
O2610      H2634   0.990       .  S
Zr2611     O2614   2.387   1_455  S
Zr2611     O2616   2.448   1_455  S
Zr2612     O2615   2.397   1_554  S
O2613      H2621   0.964       .  S
O2616      H2620   0.966       .  S
O2617      H2622   0.966       .  S
O2635     Zr2647   2.469       .  S
O2635      C2637   1.293       .  A
O2636     Zr2673   2.365       .  S
O2636      C2637   1.280       .  A
C2637      C3056   1.461       .  S
O2638     Zr2650   2.363       .  S
O2638      C2640   1.255       .  A
O2639     Zr2674   2.506       .  S
O2639      C2640   1.288       .  A
C2640      C3026   1.489       .  S
O2641     Zr2650   2.382       .  S
O2642     Zr2673   2.546       .  S
O2642      C2643   1.303       .  A
O2644      C2646   1.284       .  A
O2645     Zr2674   2.448       .  S
O2645      C2646   1.293       .  A
C2646      C3069   1.464       .  S
Zr2647     O2648   2.435       .  S
Zr2647     O2649   2.436       .  S
Zr2647     O2653   2.362       .  S
Zr2647     O2679   2.332       .  S
O2648      H2691   0.990       .  S
O2649      H2690   0.990       .  S
O2649      H2694   0.990       .  S
Zr2650     O2651   2.436       .  S
Zr2650     O2652   2.432       .  S
Zr2650     O2654   2.385       .  S
Zr2650     O2678   2.367       .  S
Zr2650     O2680   2.374       .  S
O2651      H2692   0.989       .  S
O2651      H2695   0.990       .  S
O2652      H2685   0.990       .  S
O2653     Zr2673   2.382       .  S
O2654     Zr2674   2.408       .  S
O2654      H2681   0.966       .  S
O2655      C2657   1.270   1_455  A
O2656     Zr2674   2.517       .  S
O2656      C2657   1.297       .  A
C2657      C3166   1.506       .  S
O2658     Zr2670   2.439       .  S
O2659     Zr2673   2.460       .  S
O2659      C2660   1.296       .  A
C2660      C3079   1.485       .  S
O2661     Zr2670   2.509       .  S
O2661      C2663   1.302       .  A
O2662     Zr2674   2.333       .  S
O2662      C2663   1.275       .  A
C2663      C3046   1.457       .  S
O2664     Zr2667   2.384       .  S
O2664      C2666   1.263       .  A
O2665     Zr2673   2.503       .  S
O2665      C2666   1.291       .  A
C2666      C3036   1.509       .  S
Zr2667     O2668   2.436       .  S
Zr2667     O2669   2.431       .  S
Zr2667     O2676   2.387       .  S
Zr2667     O2679   2.375       .  S
O2668      H2693   0.990       .  S
O2669      H2689   0.990       .  S
Zr2670     O2671   2.435       .  S
Zr2670     O2672   2.437       .  S
Zr2670     O2675   2.347       .  S
Zr2670     O2680   2.355       .  S
Zr2670     O2678   2.391       .  S
O2671      H2687   0.990       .  S
O2672      H2686   0.990       .  S
O2672      H2696   0.989       .  S
Zr2673     O2676   2.413       .  S
Zr2673     O2679   2.415       .  S
Zr2674     O2675   2.401       .  S
Zr2674     O2677   2.384       .  S
Zr2674     O2680   2.397       .  S
O2675      H2683   0.965       .  S
O2678      H2682   0.966       .  S
O2679      H2684   0.960       .  S
O2697     Zr2709   2.390       .  S
O2697      C2699   1.275       .  A
O2698     Zr2735   2.459   1_554  S
O2698      C2699   1.295       .  A
C2699      C3099   1.461       .  S
O2700     Zr2712   2.405   1_554  S
O2700      C2702   1.283       .  A
O2701     Zr2736   2.502       .  S
O2701      C2702   1.302       .  A
C2702      C3019   1.498       .  S
O2703     Zr2712   2.478       .  S
O2704     Zr2735   2.529       .  S
O2704      C2705   1.306       .  A
C2705      C3236   1.540       .  S
O2706     Zr2709   2.415   1_545  S
O2707     Zr2736   2.450       .  S
O2707      C2708   1.291       .  A
C2708      C2996   1.469       .  S
Zr2709     O2710   2.435       .  S
Zr2709     O2711   2.434       .  S
Zr2709     O2715   2.381       .  S
Zr2709     O2739   2.370       .  S
Zr2709     O2741   2.366       .  S
O2710      H2753   0.991       .  S
O2711      H2752   0.990       .  S
O2711      H2756   0.990       .  S
Zr2712     O2713   2.437   1_556  S
Zr2712     O2714   2.435       .  S
Zr2712     O2716   2.381   1_556  S
Zr2712     O2740   2.349       .  S
Zr2712     O2742   2.385       .  S
O2713      H2754   0.989       .  S
O2713      H2757   0.990       .  S
O2714      H2747   0.990       .  S
O2715     Zr2735   2.391   1_554  S
O2716     Zr2736   2.409       .  S
O2716      H2743   0.964       .  S
O2717      C2719   1.289       .  A
O2718     Zr2736   2.559       .  S
O2718      C2719   1.311       .  A
C2719      C3226   1.551       .  S
O2720     Zr2732   2.405       .  S
O2721     Zr2735   2.474       .  S
O2721      C2722   1.296       .  A
C2722      C2989   1.496       .  S
O2723     Zr2732   2.397       .  S
O2723      C2725   1.279       .  A
O2724     Zr2736   2.435   1_556  S
O2724      C2725   1.290       .  A
C2725      C3086   1.450       .  S
O2726     Zr2729   2.426       .  S
O2726      C2728   1.277       .  A
O2727     Zr2735   2.490       .  S
O2727      C2728   1.292       .  A
C2728      C3006   1.501       .  S
Zr2729     O2730   2.447       .  S
Zr2729     O2731   2.437   1_556  S
Zr2729     O2738   2.375       .  S
Zr2729     O2741   2.394   1_556  S
Zr2729     O2739   2.378   1_556  S
O2730      H2755   0.991       .  S
O2731      H2751   0.990       .  S
Zr2732     O2733   2.434       .  S
Zr2732     O2734   2.434       .  S
Zr2732     O2737   2.375       .  S
Zr2732     O2742   2.364       .  S
Zr2732     O2740   2.372       .  S
O2733      H2749   0.990       .  S
O2734      H2748   0.990       .  S
O2734      H2758   0.990       .  S
Zr2735     O2738   2.404       .  S
Zr2735     O2741   2.433   1_556  S
Zr2736     O2737   2.387   1_554  S
Zr2736     O2742   2.423   1_554  S
O2737      H2745   0.965       .  S
O2740      H2744   0.966       .  S
O2741      H2746   0.966       .  S
O2759     Zr2771   2.371       .  S
O2759      C2761   1.273       .  A
O2760      C2761   1.309       .  A
C2761      C2976   1.510       .  S
O2762      C2764   1.301       .  A
O2763      C2764   1.278       .  A
C2764      C2999   1.493       .  S
O2765     Zr2774   2.470       .  S
O2765      C2767   1.293       .  A
O2766     Zr2797   2.288       .  S
O2766      C2767   1.265       .  A
C2767      C3156   1.459       .  S
O2768     Zr2771   2.382       .  S
O2768      C2770   1.262       .  A
O2769      C2770   1.287       .  A
C2770      C3029   1.476       .  S
Zr2771     O2772   2.433       .  S
Zr2771     O2773   2.433       .  S
Zr2771     O2777   2.352       .  S
Zr2771     O2778   2.369       .  S
Zr2771     O2801   2.364       .  S
Zr2771     O2803   2.372       .  S
O2772      H2815   0.990       .  S
O2773      H2814   0.990       .  S
O2773      H2818   0.990       .  S
Zr2774     O2776   2.435       .  S
Zr2774     O2802   2.355       .  S
Zr2774     O2804   2.375       .  S
O2775      H2816   0.990       .  S
O2775      H2819   0.990       .  S
O2776      H2809   0.990       .  S
O2778      H2805   0.965       .  S
O2779     Zr2791   2.410       .  S
O2779      C2781   1.293       .  A
C2781      C3146   1.438   1_565  S
O2782     Zr2794   2.392       .  S
O2782      C2784   1.265       .  A
O2783     Zr2797   2.497       .  S
O2783      C2784   1.289       .  A
C2784      C3039   1.502       .  S
O2785     Zr2794   2.387       .  S
O2785      C2787   1.277       .  A
O2786     Zr2798   2.496   1_565  S
O2786      C2787   1.299       .  A
C2787      C2969   1.491       .  S
O2788     Zr2791   2.457       .  S
O2788      C2790   1.291       .  A
O2789     Zr2797   2.406       .  S
O2789      C2790   1.283       .  A
C2790      C2986   1.470       .  S
Zr2791     O2792   2.436       .  S
Zr2791     O2799   2.385       .  S
Zr2791     O2800   2.346       .  S
O2792      H2812   0.990       .  S
O2792      H2817   0.990       .  S
O2793      H2813   0.990       .  S
Zr2794     O2795   2.434       .  S
Zr2794     O2796   2.430       .  S
Zr2794     O2800   2.385       .  S
Zr2794     O2799   2.341       .  S
Zr2794     O2804   2.372       .  S
Zr2794     O2802   2.366       .  S
O2795      H2811   0.990       .  S
O2796      H2810   0.990       .  S
O2796      H2820   0.990       .  S
Zr2797     O2800   2.389       .  S
Zr2797     O2802   2.419       .  S
Zr2798     O2799   2.388   1_545  S
Zr2798     O2804   2.363   1_545  S
O2799      H2807   0.966       .  S
O2802      H2806   0.961       .  S
O2803      H2808   0.965       .  S
O2821     Zr2833   2.495       .  S
O2821      C2823   1.298       .  A
O2822     Zr2859   2.429   1_554  S
O2822      C2823   1.290       .  A
C2823      C3016   1.485       .  S
O2824     Zr2836   2.380   1_554  S
O2824      C2826   1.272       .  A
O2825     Zr2860   2.550       .  S
O2825      C2826   1.308       .  A
C2826      C3119   1.508   1_554  S
O2827     Zr2836   2.373       .  S
O2827      C2829   1.254       .  A
O2828     Zr2859   2.529       .  S
O2828      C2829   1.297       .  A
C2829      C3216   1.498       .  S
O2830     Zr2833   2.462       .  S
O2830      C2832   1.293       .  A
O2831     Zr2860   2.471       .  S
O2831      C2832   1.298       .  A
C2832      C2956   1.499       .  S
Zr2833     O2834   2.435       .  S
Zr2833     O2835   2.435       .  S
Zr2833     O2839   2.372       .  S
Zr2833     O2840   2.390       .  S
Zr2833     O2863   2.377       .  S
Zr2833     O2865   2.367       .  S
O2834      H2877   0.990       .  S
O2835      H2876   0.990       .  S
O2835      H2880   0.990       .  S
Zr2836     O2837   2.437   1_556  S
Zr2836     O2838   2.433       .  S
Zr2836     O2840   2.369   1_556  S
Zr2836     O2839   2.379   1_556  S
Zr2836     O2864   2.385       .  S
Zr2836     O2866   2.353       .  S
O2837      H2878   0.990       .  S
O2837      H2881   0.989       .  S
O2838      H2871   0.990       .  S
O2839     Zr2859   2.409   1_554  S
O2840     Zr2860   2.397       .  S
O2840      H2867   0.966       .  S
O2841     Zr2853   2.385       .  S
O2841      C2843   1.262       .  A
O2842     Zr2860   2.515       .  S
O2842      C2843   1.291       .  A
C2843      C3209   1.511       .  S
O2844     Zr2856   2.467       .  S
O2844      C2846   1.296       .  A
O2845     Zr2859   2.466       .  S
O2845      C2846   1.298       .  A
C2846      C2946   1.498       .  S
O2847     Zr2856   2.540       .  S
O2847      C2849   1.307       .  A
O2848     Zr2860   2.373   1_556  S
O2848      C2849   1.281       .  A
C2849      C3009   1.494       .  S
O2850     Zr2853   2.391   1_556  S
O2850      C2852   1.276       .  A
O2851     Zr2859   2.542       .  S
O2851      C2852   1.309       .  A
C2852      C3106   1.523       .  S
Zr2853     O2854   2.434   1_554  S
Zr2853     O2855   2.430       .  S
Zr2853     O2861   2.381   1_554  S
Zr2853     O2862   2.355   1_554  S
Zr2853     O2865   2.343       .  S
Zr2853     O2863   2.389       .  S
O2854      H2874   0.988       .  S
O2854      H2879   0.986       .  S
O2855      H2875   0.991       .  S
Zr2856     O2857   2.435       .  S
Zr2856     O2858   2.434       .  S
Zr2856     O2862   2.405       .  S
Zr2856     O2861   2.338       .  S
Zr2856     O2866   2.359       .  S
Zr2856     O2864   2.363       .  S
O2857      H2873   0.990       .  S
O2858      H2872   0.990       .  S
O2858      H2882   0.990       .  S
Zr2859     O2862   2.405       .  S
Zr2859     O2864   2.426       .  S
Zr2859     O2865   2.385   1_556  S
Zr2860     O2861   2.424   1_554  S
Zr2860     O2863   2.413       .  S
Zr2860     O2866   2.377   1_554  S
O2861      H2869   0.962       .  S
O2864      H2868   0.965       .  S
O2865      H2870   0.963       .  S
O2883     Zr2895   2.389       .  S
O2883      C2885   1.275       .  A
O2884     Zr2921   2.464       .  S
O2884      C2885   1.293       .  A
C2885      C3136   1.456       .  S
O2886     Zr2898   2.461       .  S
O2886      C2888   1.291       .  A
O2887     Zr2922   2.469       .  S
O2887      C2888   1.296       .  A
C2888      C2949   1.496       .  S
O2889     Zr2898   2.414       .  S
O2889      C2891   1.282       .  A
O2890     Zr2921   2.418       .  S
O2890      C2891   1.290       .  A
C2891      C3059   1.463       .  S
O2892     Zr2895   2.393       .  S
O2892      C2894   1.279       .  A
O2893     Zr2922   2.531       .  S
O2893      C2894   1.307       .  A
C2894      C2979   1.516       .  S
Zr2895     O2896   2.432       .  S
Zr2895     O2897   2.435       .  S
Zr2895     O2901   2.371       .  S
Zr2895     O2902   2.370       .  S
Zr2895     O2925   2.348       .  S
Zr2895     O2927   2.361       .  S
O2896      H2939   0.990       .  S
O2897      H2938   0.990       .  S
O2897      H2942   0.990       .  S
Zr2898     O2899   2.435       .  S
Zr2898     O2900   2.434       .  S
Zr2898     O2902   2.365       .  S
Zr2898     O2901   2.381       .  S
Zr2898     O2926   2.392       .  S
Zr2898     O2928   2.340       .  S
O2899      H2940   0.990       .  S
O2899      H2943   0.990       .  S
O2900      H2933   0.990       .  S
O2901     Zr2921   2.404       .  S
O2902     Zr2922   2.387       .  S
O2902      H2929   0.965       .  S
O2903     Zr2915   2.376       .  S
O2903      C2905   1.276       .  A
O2904     Zr2922   2.437       .  S
O2904      C2905   1.294       .  A
C2905      C3049   1.449       .  S
O2906     Zr2918   2.409       .  S
O2906      C2908   1.282       .  A
O2907     Zr2921   2.489       .  S
O2907      C2908   1.299       .  A
C2908      C2966   1.505       .  S
O2909     Zr2918   2.411       .  S
O2909      C2911   1.271       .  A
O2910     Zr2922   2.473       .  S
O2910      C2911   1.287       .  A
C2911      C3129   1.490       .  S
O2912     Zr2915   2.454       .  S
O2912      C2914   1.290       .  A
O2913     Zr2921   2.465       .  S
O2913      C2914   1.295       .  A
C2914      C2959   1.493       .  S
Zr2915     O2916   2.434       .  S
Zr2915     O2917   2.434       .  S
Zr2915     O2923   2.380       .  S
Zr2915     O2924   2.343       .  S
Zr2915     O2927   2.340       .  S
Zr2915     O2925   2.391       .  S
O2916      H2936   0.990       .  S
O2916      H2941   0.990       .  S
O2917      H2937   0.990       .  S
Zr2918     O2919   2.439       .  S
Zr2918     O2920   2.446       .  S
Zr2918     O2924   2.361       .  S
Zr2918     O2923   2.371       .  S
Zr2918     O2928   2.366       .  S
Zr2918     O2926   2.352       .  S
O2919      H2935   0.990       .  S
O2920      H2934   0.990       .  S
O2920      H2944   0.990       .  S
Zr2921     O2924   2.370       .  S
Zr2921     O2926   2.397       .  S
Zr2921     O2927   2.378       .  S
Zr2922     O2923   2.433       .  S
Zr2922     O2925   2.395       .  S
Zr2922     O2928   2.392       .  S
O2923      H2931   0.966       .  S
O2926      H2930   0.965       .  S
O2927      H2932   0.965       .  S
C2945      C2946   1.404       .  A
C2945      C2950   1.401       .  A
C2945      H2952   1.084       .  S
C2946      C2947   1.415       .  A
C2947      C2948   1.414       .  A
C2947     Br2954   1.918       .  S
C2948      C2949   1.409       .  A
C2948      H2953   1.083       .  S
C2949      C2950   1.411       .  A
C2950     Br2951   1.907       .  S
C2955      C2956   1.407       .  A
C2955      C2960   1.411       .  A
C2955      H2962   1.083       .  S
C2956      C2957   1.416       .  A
C2957      C2958   1.408       .  A
C2957     Br2964   1.920       .  S
C2958      C2959   1.404       .  A
C2958      H2963   1.084       .  S
C2959      C2960   1.413       .  A
C2960     Br2961   1.918       .  S
C2965      C2966   1.417       .  A
C2965      C2970   1.402       .  A
C2965      H2972   1.083       .  S
C2966      C2967   1.410       .  A
C2967      C2968   1.409       .  A
C2967     Br2974   1.917       .  S
C2968      C2969   1.416       .  A
C2968      H2973   1.084       .  S
C2969      C2970   1.404       .  A
C2970     Br2971   1.918       .  S
C2975      C2976   1.422       .  A
C2975      C2980   1.415       .  A
C2975      H2982   1.084       .  S
C2976      C2977   1.405       .  A
C2977      C2978   1.409       .  A
C2977     Br2984   1.908       .  S
C2978      C2979   1.420       .  A
C2978      H2983   1.084       .  S
C2979      C2980   1.409       .  A
C2980     Br2981   1.916       .  S
C2985      C2986   1.404       .  A
C2985      C2990   1.409       .  A
C2985      H2992   1.083       .  S
C2987      C2988   1.392       .  A
C2987     Br2994   1.922       .  S
C2988      H2993   1.083       .  S
C2989      C2990   1.415       .  A
C2990     Br2991   1.910       .  S
C2995      C2996   1.395       .  A
C2995      C3000   1.401       .  A
C2995      H3002   1.084       .  S
C2996      C2997   1.409       .  A
C2997      C2998   1.397       .  A
C2997     Br3004   1.920       .  S
C2998      C2999   1.405       .  A
C2998      H3003   1.083       .  S
C2999      C3000   1.428       .  A
C3000     Br3001   1.926       .  S
C3005      C3006   1.399       .  A
C3005      C3010   1.388       .  A
C3005      H3012   1.074       .  S
C3006      C3007   1.412       .  A
C3007      C3008   1.421       .  A
C3007     Br3014   1.906       .  S
C3008      C3009   1.413       .  A
C3008      H3013   1.081       .  S
C3009      C3010   1.411       .  A
C3010     Br3011   1.916       .  S
C3015      C3016   1.412       .  A
C3015      C3020   1.414       .  A
C3015      H3022   1.083       .  S
C3016      C3017   1.401       .  A
C3017      C3018   1.397       .  A
C3017     Br3024   1.914       .  S
C3018      C3019   1.413       .  A
C3018      H3023   1.083       .  S
C3019      C3020   1.406       .  A
C3020     Br3021   1.914       .  S
C3025      C3026   1.406       .  A
C3025      C3030   1.397       .  A
C3025      H3032   1.084       .  S
C3026      C3027   1.417       .  A
C3027      C3028   1.397       .  A
C3027     Br3034   1.896       .  S
C3028      C3029   1.399       .  A
C3028      H3033   1.085       .  S
C3029      C3030   1.409       .  A
C3030     Br3031   1.900       .  S
C3035      C3036   1.409       .  A
C3035      C3040   1.407       .  A
C3035      H3042   1.079       .  S
C3036      C3037   1.421       .  A
C3037      C3038   1.410       .  A
C3037     Br3044   1.919       .  S
C3038      C3039   1.407       .  A
C3038      H3043   1.082       .  S
C3039      C3040   1.417       .  A
C3040     Br3041   1.920       .  S
C3045      C3046   1.401       .  A
C3045      C3050   1.398       .  A
C3045      H3052   1.084       .  S
C3046      C3047   1.418       .  A
C3047      C3048   1.377       .  A
C3047     Br3054   1.911       .  S
C3048      C3049   1.386       .  A
C3048      H3053   1.085       .  S
C3049      C3050   1.411       .  A
C3050     Br3051   1.918       .  S
C3055      C3056   1.404       .  A
C3055      C3060   1.400       .  A
C3055      H3062   1.084       .  S
C3056      C3057   1.411       .  A
C3057      C3058   1.377       .  A
C3057     Br3064   1.916       .  S
C3058      C3059   1.395       .  A
C3058      H3063   1.084       .  S
C3059      C3060   1.413       .  A
C3060     Br3061   1.919       .  S
C3065      C3066   1.411       .  A
C3065      C3070   1.400       .  A
C3066      C3067   1.417       .  A
C3067      C3068   1.398       .  A
C3067     Br3074   1.915       .  S
C3068      C3069   1.400       .  A
C3068      H3073   1.084       .  S
C3069      C3070   1.403       .  A
C3075      C3076   1.411       .  A
C3075      C3080   1.409       .  A
C3075      H3082   1.083       .  S
C3076      C3077   1.424       .  A
C3077      C3078   1.399       .  A
C3077     Br3084   1.924       .  S
C3078      C3079   1.400       .  A
C3078      H3083   1.084       .  S
C3079      C3080   1.409       .  A
C3080     Br3081   1.915       .  S
C3085      C3086   1.399       .  A
C3085      C3090   1.395       .  A
C3085      H3092   1.083       .  S
C3086      C3087   1.399       .  A
C3087      C3088   1.391       .  A
C3087     Br3094   1.920       .  S
C3088      C3089   1.408       .  A
C3088      H3093   1.084       .  S
C3089      C3090   1.411       .  A
C3090     Br3091   1.919       .  S
C3095      C3096   1.396       .  A
C3095      C3100   1.400       .  A
C3095      H3102   1.083       .  S
C3096      C3097   1.405       .  A
C3097      C3098   1.387       .  A
C3097     Br3104   1.900       .  S
C3098      C3099   1.392       .  A
C3098      H3103   1.084       .  S
C3099      C3100   1.414       .  A
C3100     Br3101   1.903       .  S
C3105      C3106   1.423       .  A
C3105      C3110   1.411   1_556  A
C3105      H3112   1.083       .  S
C3106      C3107   1.407       .  A
C3107      C3108   1.415   1_556  A
C3107     Br3114   1.918       .  S
C3108      C3109   1.427       .  A
C3108      H3113   1.081       .  S
C3109      C3110   1.411       .  A
C3110     Br3111   1.913       .  S
C3115      C3116   1.406       .  A
C3115      C3120   1.412   1_556  A
C3115      H3122   1.082   1_556  S
C3116      C3117   1.412       .  A
C3117      C3118   1.417       .  A
C3117     Br3124   1.913       .  S
C3118      C3119   1.409       .  A
C3118      H3123   1.080       .  S
C3119      C3120   1.420   1_556  A
C3120     Br3121   1.919       .  S
C3125      C3126   1.416       .  A
C3125      C3130   1.410       .  A
C3125      H3132   1.084       .  S
C3126      C3127   1.403       .  A
C3127      C3128   1.388       .  A
C3127     Br3134   1.914       .  S
C3128      C3129   1.403       .  A
C3128      H3133   1.073       .  S
C3129      C3130   1.407       .  A
C3130     Br3131   1.916       .  S
C3135      C3136   1.409       .  A
C3135      C3140   1.410       .  A
C3135      H3142   1.083       .  S
C3136      C3137   1.401       .  A
C3137      C3138   1.387       .  A
C3137     Br3144   1.925       .  S
C3138      C3139   1.398       .  A
C3138      H3143   1.078       .  S
C3139      C3140   1.409       .  A
C3140     Br3141   1.914       .  S
C3145      C3150   1.384       .  A
C3145      H3152   1.084       .  S
C3146      C3147   1.394   1_545  A
C3147      C3148   1.381       .  A
C3147     Br3154   1.914       .  S
C3148      H3153   1.078       .  S
C3149      C3150   1.398       .  A
C3150     Br3151   1.919       .  S
C3155      C3160   1.374       .  A
C3155      H3162   1.083       .  S
C3156      C3157   1.398       .  A
C3157      C3158   1.383       .  A
C3157     Br3164   1.922       .  S
C3158      H3163   1.084       .  S
C3159      C3160   1.395       .  A
C3160     Br3161   1.927       .  S
C3165      C3166   1.408       .  A
C3165      C3170   1.413       .  A
C3165      H3172   1.083       .  S
C3166      C3167   1.420       .  A
C3168      H3173   1.083       .  S
C3169      C3170   1.416       .  A
C3170     Br3171   1.917       .  S
C3175      C3176   1.406       .  A
C3176      C3177   1.416       .  A
C3177      C3178   1.416   1_655  A
C3177     Br3184   1.916   1_655  S
C3178      C3179   1.409   1_455  A
C3178      H3183   1.083       .  S
C3180     Br3181   1.917       .  S
C3185      C3190   1.385       .  A
C3185      H3192   1.084       .  S
C3186      C3187   1.410       .  A
C3187      C3188   1.397       .  A
C3187     Br3194   1.921       .  S
C3188      C3189   1.400       .  A
C3188      H3193   1.084       .  S
C3190     Br3191   1.919       .  S
C3195      C3200   1.382       .  A
C3195      H3202   1.084       .  S
C3197      C3198   1.390       .  A
C3197     Br3204   1.923       .  S
C3198      C3199   1.397       .  A
C3198      H3203   1.084       .  S
C3200     Br3201   1.921       .  S
C3205      C3206   1.409   1_554  A
C3205      C3210   1.410       .  A
C3205      H3212   1.080       .  S
C3206      C3207   1.416       .  A
C3207      C3208   1.412       .  A
C3207     Br3214   1.918       .  S
C3208      C3209   1.408   1_556  A
C3208      H3213   1.078       .  S
C3209      C3210   1.418       .  A
C3210     Br3211   1.923       .  S
C3215      C3216   1.401   1_554  A
C3215      C3220   1.409       .  A
C3215      H3222   1.080       .  S
C3216      C3217   1.425       .  A
C3217      C3218   1.402       .  A
C3217     Br3224   1.924       .  S
C3218      C3219   1.399   1_556  A
C3218      H3223   1.083       .  S
C3219      C3220   1.422       .  A
C3220     Br3221   1.920       .  S
C3225      C3230   1.413       .  A
C3225      H3232   1.083   1_545  S
C3226      C3227   1.426       .  A
C3227      C3228   1.442       .  A
C3227     Br3234   1.910       .  S
C3228      C3229   1.421       .  A
C3228      H3233   1.083       .  S
C3230     Br3231   1.921   1_545  S
C3235      C3236   1.423       .  A
C3235      C3240   1.441       .  A
C3235      H3242   1.083       .  S
C3236      C3237   1.413       .  A
C3237      C3238   1.407       .  A
C3238      C3239   1.408       .  A
C3239      C3240   1.423       .  A
C3240     Br3241   1.913       .  S
C3245      C3246   1.418   1_654  A
C3245      C3250   1.381       .  A
C3245      H3252   1.083       .  S
C3247      C3248   1.384       .  A
C3247     Br3254   1.922       .  S
C3248      C3249   1.409   1_556  A
C3248      H3253   1.077       .  S
C3250     Br3251   1.922       .  S
C3255      C3256   1.391       .  A
C3255      C3260   1.385       .  A
C3255      H3262   1.084       .  S
C3257      C3258   1.385       .  A
C3257     Br3264   1.916       .  S
C3258      H3263   1.083       .  S
C3259      C3260   1.424       .  A
C3260     Br3261   1.927       .  S
