geometry optimzed in LAMMPS
_audit_creation_date              2020-11-30 
_audit_creation_method            'lammps2cif' 
_symmetry_space_group_name_H-M    'P1' 
_symmetry_Int_Tables_number       1 
_symmetry_cell_setting            triclinic 
loop_ 
_symmetry_equiv_pos_as_xyz 
  x,y,z 
_cell_length_a                    29.4008032 
_cell_length_b                    29.31911509658417 
_cell_length_c                    28.63428270117931 
_cell_angle_alpha                 90.08628307339414 
_cell_angle_beta                  90.20626077417744 
_cell_angle_gamma                 91.23539178644744 
loop_ 
_atom_site_label 
_atom_site_type_symbol 
_atom_site_fract_x 
_atom_site_fract_y 
_atom_site_fract_z 
_atom_site_charge 
C1          C  0.37046551  0.99183716  0.20950334     0.05700
C2          C  0.37382404  0.03989262  0.20885991     0.05600
C3          C  0.37666299  0.06402472  0.25114730    -0.14900
C4          C  0.37685640  0.04072529  0.29392751     0.05700
C5          C  0.37374493  0.99266141  0.29451126     0.05600
C6          C  0.37026869  0.96859694  0.25227145    -0.14900
H7          H  0.36820551  0.93160984  0.25264772     0.07700
H8          H  0.37966210  0.10096206  0.25074030     0.07700
In9        In  0.40623462  0.14245905  0.00028687     1.36900
C10         C  0.49987350  0.14680900  0.49980243     0.81000
O11         O  0.41319050  0.14058134  0.07875460    -0.57500
O12         O  0.37247947  0.08913894  0.04600535    -0.48400
C13         C  0.35278362  0.21454110  0.99927321     0.73600
O14         O  0.39770319  0.21843155  0.51183210    -0.43200
C15         C  0.39433274  0.10613533  0.41881567     0.78300
O16         O  0.47222349  0.18248114  0.00281215    -0.55100
O17         O  0.38745869  0.08469367  0.45626932    -0.45200
O18         O  0.47744238  0.10997050  0.50451014    -0.51500
C19         C  0.38875090  0.10513327  0.08346269     0.88500
O20         O  0.33755761  0.17414528  0.00287180    -0.53400
O21         O  0.40860314  0.14663514  0.42378609    -0.56700
In22       In  0.38619717  0.88026759  0.50018502     1.36900
C23         C  0.47395552  0.88131710  0.00228592     0.81000
O24         O  0.38624301  0.88111774  0.42128980    -0.57500
O25         O  0.37698017  0.94361539  0.45698989    -0.48400
C26         C  0.31327097  0.82401604  0.49967845     0.73600
O27         O  0.35476620  0.81341457  0.00376963    -0.44800
C28         C  0.37304130  0.92395287  0.08512267     0.78300
O29         O  0.44278633  0.82869327  0.49800089    -0.55100
O30         O  0.36367104  0.94427472  0.04766208    -0.45200
O31         O  0.45258046  0.91797511  0.00428472    -0.51500
C32         C  0.38016728  0.92340186  0.41841017     0.88500
O33         O  0.31048468  0.86676843  0.50087554    -0.53400
O34         O  0.38674689  0.88375562  0.08036823    -0.56700
C35         C  0.71967711  0.96820359  0.20763784     0.05700
C36         C  0.72592123  0.01599562  0.20794796     0.05600
C37         C  0.73031193  0.03926833  0.25053773    -0.14900
C38         C  0.72830332  0.01530492  0.29278269     0.05700
C39         C  0.72195414  0.96753573  0.29239089     0.05600
C40         C  0.71787586  0.94425575  0.24984618    -0.14900
H41         H  0.71268184  0.90750297  0.24959993     0.07700
H42         H  0.73469025  0.07610439  0.25082275     0.07700
In43       In  0.71529402  0.11565543  0.50289263     1.36900
C44         C  0.62181675  0.11640892  0.99530771     0.81000
O45         O  0.70883395  0.11762072  0.42480569    -0.57500
O46         O  0.74053062  0.06048253  0.45560436    -0.48400
C47         C  0.77037962  0.18897369  0.50257762     0.73600
O48         O  0.72581862  0.19438445  0.99444666    -0.43200
C49         C  0.72224881  0.08203391  0.08292398     0.78300
O50         O  0.64792451  0.15032317  0.50094880    -0.55100
O51         O  0.73617427  0.06311920  0.04633320    -0.45200
O52         O  0.64522006  0.08114566  0.99195225    -0.51500
C53         C  0.72715630  0.07967328  0.41886983     0.88500
O54         O  0.78448833  0.14895272  0.49771524    -0.53400
O55         O  0.70409159  0.12007502  0.07695399    -0.56700
In56       In  0.69125115  0.86226752  0.00087044     1.36900
C57         C  0.60487096  0.87298442  0.50407596     0.81000
O58         O  0.69063134  0.86065438  0.07927932    -0.57500
O59         O  0.70871082  0.92303171  0.04543297    -0.48400
C60         C  0.75834571  0.80262400  0.00330770     0.73600
O61         O  0.71589933  0.79245360  0.50039082    -0.43200
C62         C  0.70793740  0.90275968  0.41736705     0.78300
O63         O  0.62719646  0.81739755  0.00368174    -0.55100
O64         O  0.71818632  0.92386003  0.45444765    -0.45200
O65         O  0.63205938  0.90665068  0.50572105    -0.51500
C66         C  0.70264996  0.90200099  0.08328713     0.88500
O67         O  0.76461175  0.84489423  0.00866123    -0.53400
O68         O  0.69149394  0.86303512  0.42274676    -0.56700
C69         C  0.09133795  0.33527148  0.20905668     0.05700
C70         C  0.04370057  0.32932966  0.20882962     0.05600
C71         C  0.02011705  0.32615543  0.25104120    -0.14900
C72         C  0.04369349  0.32903606  0.29347113     0.05700
C73         C  0.09137285  0.33488137  0.29368205     0.05600
C74         C  0.11497658  0.33784770  0.25145911    -0.14900
H75         H  0.15167653  0.34262028  0.25159777     0.07700
H76         H  0.98335972  0.32195153  0.25087229     0.07700
In77       In  0.19000925  0.35554146  0.50403454     1.36900
C78         C  0.19664705  0.44617352  0.99529267     0.81000
O79         O  0.19528710  0.36040317  0.42615913    -0.57500
O80         O  0.13250141  0.33741916  0.45601381    -0.48400
C81         C  0.24923342  0.28846202  0.50238522     0.73600
O82         O  0.26002602  0.32970166  0.99619134    -0.43200
C83         C  0.15352076  0.34752155  0.08308013     0.78300
O84         O  0.23198446  0.42106364  0.50711561    -0.55100
O85         O  0.13055895  0.33936090  0.04667784    -0.45200
O86         O  0.15892150  0.42500699  0.99399986    -0.51500
C87         C  0.15480815  0.34673460  0.41964128     0.88500
O88         O  0.20695628  0.28207032  0.49838927    -0.53400
O89         O  0.19431001  0.35984648  0.07657576    -0.56700
In90       In  0.93782864  0.33387113  0.00116791     1.36900
C91         C  0.93187435  0.42398539  0.50395342     0.81000
O92         O  0.93805797  0.34425218  0.07856734    -0.57500
O93         O  0.99636521  0.31526724  0.04708172    -0.48400
C94         C  0.87647556  0.26611024  0.00588802     0.73600
O95         O  0.86572935  0.30607842  0.50323761    -0.43200
C96         C  0.97678374  0.32855234  0.41754218     0.78300
O97         O  0.89764755  0.39877863  0.00446689    -0.55100
O98         O  0.99766629  0.31989121  0.45486036    -0.45200
O99         O  0.96856182  0.40330506  0.50918499    -0.51500
C100        C  0.97736355  0.32874786  0.08384635     0.88500
O101        O  0.91849646  0.26048005  0.01106750    -0.53400
O102        O  0.93578182  0.33933461  0.42216433    -0.56700
C103        C  0.00792876  0.66745753  0.20683887     0.05700
C104        C  0.05556095  0.67447883  0.20744720     0.05600
C105        C  0.07849817  0.67810040  0.25041415    -0.14900
C106        C  0.05458563  0.67473192  0.29269176     0.05700
C107        C  0.00695870  0.66766850  0.29209873     0.05600
C108        C  0.98399906  0.66414881  0.24912354    -0.14900
H109        H  0.94741808  0.65852234  0.24857525     0.07700
H110        H  0.11515622  0.68311770  0.25096490     0.07700
In111      In  0.16301663  0.66271013  0.99965064     1.36900
C112        C  0.16298856  0.57110311  0.50391771     0.81000
O113        O  0.16064587  0.65253299  0.07782244    -0.57500
O114        O  0.10862773  0.69107317  0.04647318    -0.48400
C115        C  0.23636663  0.71857352  0.00112840     0.73600
O116        O  0.23656815  0.67537921  0.49312756    -0.43200
C117        C  0.12215939  0.67377410  0.41767107     0.78300
O118        O  0.19989434  0.59592061  0.99767963    -0.55100
O119        O  0.10662348  0.69068016  0.45462576    -0.45200
O120        O  0.12690349  0.59293866  0.49888223    -0.51500
C121        C  0.12438749  0.67392047  0.08325341     0.88500
O122        O  0.19623981  0.73291478  0.00072389    -0.53400
O123        O  0.15834460  0.65216590  0.42274595    -0.56700
In124      In  0.90014946  0.63939816  0.49969671     1.36900
C125        C  0.89673177  0.54893398  0.00090723     0.81000
O126        O  0.89904381  0.63912855  0.42062161    -0.57500
O127        O  0.95979400  0.66091099  0.45469065    -0.48400
C128        C  0.82866054  0.69425609  0.50135245     0.73600
O129        O  0.82695060  0.65336222  0.98983923    -0.43200
C130        C  0.94168630  0.65300856  0.08157215     0.78300
O131        O  0.86121808  0.57248861  0.49251748    -0.55100
O132        O  0.96203407  0.65997956  0.04355132    -0.45200
O133        O  0.93335077  0.57117360  0.99458557    -0.51500
C134        C  0.93960012  0.65315692  0.41658655     0.88500
O135        O  0.86901951  0.70859699  0.49573678    -0.53400
O136        O  0.90077120  0.63997673  0.07758056    -0.56700
C137        C  0.98137373  0.66328795  0.33519900    -0.09900
C138        C  0.96153987  0.65914429  0.37196600    -0.11400
C139        C  0.98322384  0.66300199  0.16318076    -0.09900
C140        C  0.96375138  0.65887556  0.12615262    -0.11400
C141        C  0.09948634  0.67726833  0.37327596    -0.09900
C142        C  0.07955933  0.67724335  0.33631866    -0.11400
C143        C  0.08143642  0.67683153  0.16439853    -0.09900
C144        C  0.10178461  0.67693482  0.12773496    -0.11400
C145        C  0.93117746  0.47408750  0.50560037    -0.13000
C146        C  0.89441295  0.49861015  0.00217386    -0.28200
H147        H  0.96414346  0.49162338  0.98853265     0.16000
H148        H  0.86114524  0.48096846  0.49169170     0.16600
C149        C  0.20017520  0.49647771  0.99486019    -0.13000
C150        C  0.16244947  0.52095451  0.50488083    -0.28200
H151        H  0.23359928  0.51298952  0.50948934     0.16000
H152        H  0.12922517  0.50507281  0.99374465     0.16600
C153        C  0.01857309  0.32750189  0.16557716    -0.09900
C154        C  0.99920807  0.32726569  0.12850019    -0.11400
C155        C  0.99855594  0.32702624  0.37304694    -0.09900
C156        C  0.01839443  0.32718125  0.33639777    -0.11400
C157        C  0.11634815  0.33877602  0.33687656    -0.09900
C158        C  0.13513660  0.34233669  0.37410901    -0.11400
C159        C  0.13435202  0.34319957  0.12866052    -0.09900
C160        C  0.11615180  0.33953022  0.16602273    -0.11400
C161        C  0.79670265  0.77104796  0.00451748    -0.13000
C162        C  0.78916524  0.72468652  0.50197570    -0.28200
H163        H  0.83035674  0.78561236  0.01146072     0.16000
H164        H  0.75524798  0.70991468  0.50629226     0.16600
C165        C  0.84400170  0.22719644  0.00752333    -0.13000
C166        C  0.80077979  0.22962393  0.50242272    -0.28200
H167        H  0.85782648  0.19366748  0.01378873     0.16000
H168        H  0.78607716  0.26292703  0.50755598     0.16600
C169        C  0.71406863  0.94335020  0.16442488    -0.09900
C170        C  0.70894162  0.92377705  0.12771838    -0.11400
C171        C  0.71394959  0.92302591  0.37229408    -0.09900
C172        C  0.71812009  0.94217656  0.33534777    -0.11400
C173        C  0.73091360  0.05906325  0.37367047    -0.09900
C174        C  0.73103958  0.04019566  0.33626395    -0.11400
C175        C  0.72566596  0.06108296  0.12795060    -0.09900
C176        C  0.72663548  0.04159594  0.16494257    -0.11400
C177        C  0.27243577  0.79374826  0.49997789    -0.13000
C178        C  0.27722629  0.74890522  0.00184309    -0.28200
H179        H  0.23946154  0.80946460  0.50320656     0.16000
H180        H  0.31047243  0.73347041  0.00295844     0.16600
C181        C  0.52418796  0.88229876  0.00176029    -0.13000
C182        C  0.55530034  0.88017746  0.50528376    -0.28200
H183        H  0.53290015  0.81161895  0.49810536     0.16000
H184        H  0.53493621  0.81127715  0.00135656     0.16600
C185        C  0.32335338  0.25457748  0.99828141    -0.13000
C186        C  0.28038635  0.24984404  0.50152933    -0.28200
H187        H  0.34075433  0.28826709  0.51353222     0.16000
H188        H  0.26265542  0.21581208  0.00426724     0.16600
C189        C  0.54992491  0.14914376  0.49908955    -0.13000
C190        C  0.57186339  0.11398741  0.99437549    -0.28200
H191        H  0.56651291  0.18238377  0.49510544     0.16000
H192        H  0.55558735  0.08057410  0.99027663     0.16600
C193        C  0.37530350  0.96744877  0.33795525    -0.09900
C194        C  0.37728955  0.94697552  0.37447704    -0.11400
C195        C  0.36970369  0.94570235  0.12986651    -0.09900
C196        C  0.36906190  0.96584246  0.16659875    -0.11400
C197        C  0.38183239  0.06636163  0.33684541    -0.09900
C198        C  0.38702764  0.08557289  0.37381482    -0.11400
C199        C  0.38102378  0.08386434  0.12809190    -0.09900
C200        C  0.37663708  0.06468056  0.16518064    -0.11400
C201        C  0.37375663  0.98766982  0.70783432     0.05700
C202        C  0.37758992  0.03569619  0.70776762     0.05600
C203        C  0.37882734  0.05958972  0.75024346    -0.14900
C204        C  0.37656644  0.03609174  0.79279568     0.05700
C205        C  0.37275251  0.98808995  0.79277876     0.05600
C206        C  0.37121436  0.96420836  0.75035951    -0.14900
H207        H  0.36865339  0.92723855  0.75045993     0.07700
H208        H  0.38217591  0.09650928  0.75018858     0.07700
In209      In  0.40958162  0.14327553  0.50233891     1.36900
C210        C  0.49653933  0.14782107  0.99964694     0.81000
O211        O  0.41856652  0.13832462  0.58018960    -0.57500
O212        O  0.37535053  0.08932817  0.54663592    -0.48400
C213        C  0.35529603  0.21487990  0.50623456     0.73600
O214        O  0.39540432  0.21810550  0.99640755    -0.43200
C215        C  0.39051547  0.10283237  0.91768682     0.78300
O216        O  0.47608872  0.18186923  0.49603689    -0.55100
O217        O  0.38712981  0.08153792  0.95567983    -0.45200
O218        O  0.47468128  0.11044392  0.99702586    -0.51500
C219        C  0.39319300  0.10344343  0.58413974     0.88500
O220        O  0.34067962  0.17473168  0.49912467    -0.53400
O221        O  0.40123758  0.14442955  0.92166783    -0.56700
In222      In  0.38347393  0.88587995  0.00201302     1.36900
C223        C  0.47430803  0.85837379  0.50129245     0.81000
O224        O  0.38791675  0.88243823  0.92388753    -0.57500
O225        O  0.36576809  0.94403702  0.95519329    -0.48400
C226        C  0.31389638  0.82592575  0.00137711     0.73600
O227        O  0.35343147  0.80978085  0.49850755    -0.44800
C228        C  0.37803007  0.91965823  0.58338868     0.78300
O229        O  0.44899808  0.84559295  0.00051270    -0.55100
O230        O  0.37180343  0.94066584  0.54569835    -0.45200
O231        O  0.46063550  0.89872500  0.50404897    -0.51500
C232        C  0.37512022  0.92281724  0.91826591     0.88500
O233        O  0.30913943  0.86841710  0.99938748    -0.53400
O234        O  0.38792446  0.87828929  0.57890759    -0.56700
C235        C  0.73560074  0.96320949  0.70956062     0.05700
C236        C  0.74242985  0.01094371  0.70940111     0.05600
C237        C  0.74557342  0.03467799  0.75184326    -0.14900
C238        C  0.74101075  0.01140120  0.79434620     0.05700
C239        C  0.73349986  0.96374865  0.79438584     0.05600
C240        C  0.73139829  0.93989442  0.75201478    -0.14900
H241        H  0.72521032  0.90327642  0.75203680     0.07700
H242        H  0.75024239  0.07148395  0.75177052     0.07700
In243      In  0.71205532  0.11854811  0.99892574     1.36900
C244        C  0.62492325  0.11359303  0.50358172     0.81000
O245        O  0.71242358  0.11794587  0.92046269    -0.57500
O246        O  0.74139771  0.06204549  0.95623901    -0.48400
C247        C  0.76812688  0.19122423  0.00015705     0.73600
O248        O  0.72801579  0.19156719  0.50778345    -0.43200
C249        C  0.73338929  0.07769028  0.58498925     0.78300
O250        O  0.64455780  0.15314427  0.99997031    -0.55100
O251        O  0.74522560  0.06013788  0.54687781    -0.45200
O252        O  0.64814163  0.07809690  0.50619750    -0.51500
C253        C  0.73117592  0.07982731  0.91771186     0.88500
O254        O  0.78162660  0.15100487  0.00519640    -0.53400
O255        O  0.71337700  0.11505091  0.58138511    -0.56700
In256      In  0.69518707  0.86678362  0.50090290     1.36900
C257        C  0.60064353  0.85051824  0.00053908     0.81000
O258        O  0.69632886  0.86135723  0.57895465    -0.57500
O259        O  0.72381821  0.92167642  0.54721655    -0.48400
C260        C  0.75793267  0.80291158  0.49862565     0.73600
O261        O  0.71733453  0.79032310  0.99685745    -0.43200
C262        C  0.70799719  0.89982511  0.91829099     0.78300
O263        O  0.62370368  0.83459780  0.50109003    -0.55100
O264        O  0.71186881  0.92173391  0.95596630    -0.45200
O265        O  0.62052915  0.88884016  0.99712815    -0.51500
C266        C  0.71491264  0.90021353  0.58431083     0.88500
O267        O  0.76687298  0.84504862  0.49772761    -0.53400
O268        O  0.69510080  0.85879483  0.92248485    -0.56700
C269        C  0.08576794  0.31758111  0.70873669     0.05700
C270        C  0.03820990  0.31085123  0.70802167     0.05600
C271        C  0.01412045  0.30757329  0.74997392    -0.14900
C272        C  0.03710571  0.31136067  0.79268626     0.05700
C273        C  0.08471386  0.31778050  0.79333740     0.05600
C274        C  0.10881844  0.32059225  0.75141206    -0.14900
H275        H  0.14541106  0.32626979  0.75200243     0.07700
H276        H  0.97737890  0.30325299  0.74936583     0.07700
In277      In  0.18834510  0.35576794  0.99871886     1.36900
C278        C  0.19742144  0.44595025  0.50681349     0.81000
O279        O  0.19010117  0.35322978  0.92070476    -0.57500
O280        O  0.12896057  0.33256563  0.95536164    -0.48400
C281        C  0.24713463  0.28845341  0.00014708     0.73600
O282        O  0.26185963  0.32973593  0.50704337    -0.43200
C283        C  0.15145495  0.33910692  0.58560826     0.78300
O284        O  0.23087924  0.42094692  0.99763590    -0.55100
O285        O  0.13074816  0.33274401  0.54749947    -0.45200
O286        O  0.15987998  0.42445573  0.50547395    -0.51500
C287        C  0.14962152  0.33855679  0.91732667     0.88500
O288        O  0.20480457  0.28219217  0.00333991    -0.53400
O289        O  0.19182829  0.35395624  0.58223808    -0.56700
In290      In  0.93790665  0.33389113  0.50012443     1.36900
C291        C  0.93232050  0.42402698  0.99710990     0.81000
O292        O  0.93429886  0.33298403  0.57807267    -0.57500
O293        O  0.99510666  0.31105373  0.54526447    -0.48400
C294        C  0.87757356  0.26526559  0.49738436     0.73600
O295        O  0.86528119  0.30690853  0.99875741    -0.43200
C296        C  0.97252640  0.31888353  0.91767874     0.78300
O297        O  0.89721700  0.39850230  0.49707062    -0.55100
O298        O  0.99509063  0.31379526  0.95474075    -0.45200
O299        O  0.96879965  0.40307428  0.99152001    -0.51500
C300        C  0.97408003  0.31844116  0.58269037     0.88500
O301        O  0.91965935  0.26009838  0.49253531    -0.53400
O302        O  0.93192459  0.33067796  0.92313184    -0.56700
C303        C  0.00629539  0.67524569  0.70711182     0.05700
C304        C  0.05415498  0.68006434  0.70735300     0.05600
C305        C  0.07773272  0.68292645  0.75002669    -0.14900
C306        C  0.05426520  0.68073199  0.79258187     0.05700
C307        C  0.00641904  0.67575497  0.79238370     0.05600
C308        C  0.98279463  0.67328509  0.74968724    -0.14900
H309        H  0.94605256  0.66907371  0.74960504     0.07700
H310        H  0.11455159  0.68621442  0.75011417     0.07700
In311      In  0.16131432  0.66167949  0.50071227     1.36900
C312        C  0.16374762  0.57197028  0.99614860     0.81000
O313        O  0.16159516  0.65951946  0.57941276    -0.57500
O314        O  0.10327196  0.68511586  0.54527019    -0.48400
C315        C  0.23412858  0.71793274  0.49774957     0.73600
O316        O  0.23897513  0.67580774  0.00084879    -0.43200
C317        C  0.12326237  0.67701431  0.91702226     0.78300
O318        O  0.19863727  0.59557197  0.50769105    -0.55100
O319        O  0.10524039  0.68799365  0.95512213    -0.45200
O320        O  0.12770516  0.59438978  0.99640410    -0.51500
C321        C  0.12218301  0.67501382  0.58327121     0.88500
O322        O  0.19433690  0.73198592  0.50373057    -0.53400
O323        O  0.16223764  0.66042686  0.92080639    -0.56700
In324      In  0.90167029  0.63979642  0.99887614     1.36900
C325        C  0.89567938  0.54851717  0.49906957     0.81000
O326        O  0.90397982  0.63426309  0.92035578    -0.57500
O327        O  0.95601081  0.67316156  0.95438722    -0.48400
C328        C  0.83099761  0.69554269  0.99754213     0.73600
O329        O  0.82473853  0.65170789  0.50636049    -0.43200
C330        C  0.93910604  0.65774487  0.58237466     0.78300
O331        O  0.86225841  0.57319045  0.00616254    -0.55100
O332        O  0.95588530  0.67127614  0.54430531    -0.45200
O333        O  0.93208718  0.57103250  0.50592143    -0.51500
C334        C  0.93995273  0.65799065  0.91648527     0.88500
O335        O  0.87116964  0.70924609  0.00578378    -0.53400
O336        O  0.90200875  0.63576603  0.57851207    -0.56700
C337        C  0.98127698  0.67139166  0.83559078    -0.09900
C338        C  0.96168041  0.66619407  0.87226562    -0.11400
C339        C  0.98102824  0.67077531  0.66362001    -0.09900
C340        C  0.96123775  0.66574128  0.62677221    -0.11400
C341        C  0.10030132  0.68128088  0.87273142    -0.09900
C342        C  0.07986571  0.68206774  0.83600582    -0.11400
C343        C  0.07966586  0.68064034  0.66421618    -0.09900
C344        C  0.09981077  0.67935846  0.62757707    -0.11400
C345        C  0.93185717  0.47416689  0.99531997    -0.13000
C346        C  0.89356940  0.49821594  0.49849244    -0.28200
H347        H  0.96343348  0.49177531  0.51222285     0.16000
H348        H  0.86192032  0.48160850  0.00896710     0.16600
C349        C  0.20033844  0.49623894  0.50754793    -0.13000
C350        C  0.16257551  0.52176848  0.99452994    -0.28200
H351        H  0.23367953  0.51279015  0.99587621     0.16000
H352        H  0.12938902  0.50380715  0.50244465     0.16600
C353        C  0.01349473  0.31000028  0.66459645    -0.09900
C354        C  0.99460521  0.31221624  0.62741772    -0.11400
C355        C  0.99229661  0.31317697  0.87248947    -0.09900
C356        C  0.01136796  0.31099403  0.83544728    -0.11400
C357        C  0.10910513  0.32362106  0.83661218    -0.09900
C358        C  0.12826364  0.32983470  0.87327301    -0.11400
C359        C  0.13031765  0.33034878  0.62968517    -0.09900
C360        C  0.11101106  0.32378515  0.66610829    -0.11400
C361        C  0.79510272  0.76996512  0.49766857    -0.13000
C362        C  0.79167781  0.72605106  0.99684470    -0.28200
H363        H  0.82934060  0.78417047  0.49390300     0.16000
H364        H  0.75816954  0.71130460  0.98961306     0.16600
C365        C  0.84575710  0.22584547  0.49651817    -0.13000
C366        C  0.79915785  0.23145568  0.00047274    -0.28200
H367        H  0.86016803  0.19238908  0.49140888     0.16000
H368        H  0.78505524  0.26484783  0.99421004     0.16600
C369        C  0.73032924  0.93809020  0.66647377    -0.09900
C370        C  0.72422088  0.91940582  0.62943728    -0.11400
C371        C  0.71764786  0.92033858  0.87389936    -0.09900
C372        C  0.72551644  0.93921718  0.83736321    -0.11400
C373        C  0.73855932  0.05739665  0.87392012    -0.09900
C374        C  0.74130112  0.03714790  0.83739739    -0.11400
C375        C  0.74054385  0.05589207  0.62921407    -0.09900
C376        C  0.74318103  0.03623960  0.66608491    -0.11400
C377        C  0.27396906  0.79447803  0.00090126    -0.13000
C378        C  0.27495639  0.74818004  0.49652605    -0.28200
H379        H  0.24058701  0.80964060  0.99951337     0.16000
H380        H  0.30788722  0.73247510  0.49283103     0.16600
C381        C  0.52323947  0.84700381  0.50156888    -0.13000
C382        C  0.55035518  0.84525518  0.00105403    -0.28200
H383        H  0.54040659  0.91595452  0.00210311     0.16000
H384        H  0.54483509  0.91536867  0.50856843     0.16600
C385        C  0.32546993  0.25467329  0.50762393    -0.13000
C386        C  0.27803814  0.24970799  0.00108759    -0.28200
H387        H  0.33906962  0.28831073  0.99510062     0.16000
H388        H  0.26538048  0.21607108  0.49587496     0.16600
C389        C  0.54650386  0.15112041  0.99924851    -0.13000
C390        C  0.57488362  0.11162042  0.50362412    -0.28200
H391        H  0.56265722  0.18459121  0.00326937     0.16000
H392        H  0.55822873  0.07838311  0.50741395     0.16600
C393        C  0.37178540  0.96287085  0.83600263    -0.09900
C394        C  0.37240978  0.94363295  0.87313244    -0.11400
C395        C  0.37492378  0.94170640  0.62804394    -0.09900
C396        C  0.37369075  0.96193056  0.66472711    -0.11400
C397        C  0.37967706  0.06147236  0.83613996    -0.09900
C398        C  0.38368896  0.08101619  0.87312641    -0.11400
C399        C  0.38602604  0.08083980  0.62802113    -0.09900
C400        C  0.38155474  0.06085207  0.66455936    -0.11400
loop_ 
_geom_bond_atom_site_label_1 
_geom_bond_atom_site_label_2 
_geom_bond_distance 
_geom_bond_site_symmetry_2 
_ccdc_geom_bond_type 
C1            C2   1.410   1_565  A
C1            C6   1.402       .  A
C1          C196   1.445       .  S
C2            C3   1.403       .  A
C2          C200   1.449       .  S
C3            C4   1.404       .  A
C3            H8   1.085       .  S
C4            C5   1.410   1_545  A
C4          C197   1.445       .  S
C5            C6   1.402       .  A
C5          C193   1.449       .  S
C6            H7   1.085       .  S
In9          O11   2.256       .  S
In9          O12   2.256       .  S
In9          O20   2.242       .  S
In9          O16   2.247       .  S
In9         O214   2.250   1_554  S
In9         O217   2.254   1_554  S
In9         O218   2.241   1_554  S
In9         O221   2.256   1_554  S
C10          O18   1.261       .  A
C10         O216   1.260       .  A
C10         C189   1.472       .  S
O11          C19   1.258       .  A
O12          C19   1.259       .  A
C13          O20   1.262   1_556  A
C13         O214   1.258       .  A
C13         C185   1.473       .  S
O14        In209   2.255       .  S
O14         C213   1.259       .  A
C15         C198   1.435       .  S
C15          O17   1.259       .  A
C15          O21   1.259       .  A
O16         C210   1.258   1_554  A
O17        In209   2.248       .  S
O18        In209   2.241       .  S
C19         C199   1.439       .  S
O21        In209   2.252       .  S
In22         O24   2.259       .  S
In22         O25   2.254       .  S
In22         O33   2.253       .  S
In22         O29   2.273       .  S
In22        O227   2.262       .  S
In22        O230   2.246       .  S
In22        O231   2.245       .  S
In22        O234   2.255       .  S
C23          O31   1.258       .  A
C23         O229   1.267       .  A
C23         C181   1.477       .  S
O24          C32   1.259       .  A
O25          C32   1.258       .  A
C26          O33   1.258       .  A
C26         O227   1.261       .  A
C26         C177   1.478       .  S
O27        In222   2.270       .  S
O27         C226   1.266       .  A
C28         C195   1.435       .  S
C28          O30   1.260       .  A
C28          O34   1.261       .  A
O29         C223   1.261       .  A
O30        In222   2.241       .  S
O31        In222   2.221       .  S
C32         C194   1.439       .  S
O34        In222   2.246       .  S
C35          C36   1.409   1_565  A
C35          C40   1.399       .  A
C35         C169   1.442       .  S
C36          C37   1.401       .  A
C36         C176   1.443       .  S
C37          C38   1.401       .  A
C37          H42   1.085       .  S
C38          C39   1.409   1_545  A
C38         C174   1.443       .  S
C39          C40   1.399       .  A
C39         C172   1.442       .  S
C40          H41   1.085       .  S
In43         O45   2.244       .  S
In43         O46   2.248       .  S
In43         O54   2.243       .  S
In43         O50   2.246       .  S
In43        O248   2.253       .  S
In43        O251   2.252       .  S
In43        O252   2.242       .  S
In43        O255   2.249       .  S
C44          O52   1.258       .  A
C44         O250   1.262       .  A
C44         C190   1.469       .  S
O45          C53   1.258       .  A
O46          C53   1.259       .  A
C47          O54   1.261       .  A
C47         O248   1.259       .  A
C47         C166   1.474       .  S
O48        In243   2.255       .  S
O48         C247   1.259   1_556  A
C49         C175   1.433       .  S
C49          O51   1.259       .  A
C49          O55   1.258       .  A
O50         C244   1.262       .  A
O51        In243   2.244   1_554  S
O52        In243   2.238       .  S
C53         C173   1.433       .  S
O55        In243   2.248   1_554  S
In56         O58   2.246       .  S
In56         O59   2.239       .  S
In56         O67   2.237       .  S
In56         O63   2.276       .  S
In56        O261   2.263   1_554  S
In56        O264   2.242   1_554  S
In56        O265   2.238   1_554  S
In56        O268   2.250   1_554  S
C57          O65   1.257       .  A
C57         O263   1.268       .  A
C57         C182   1.478       .  S
O58          C66   1.260       .  A
O59          C66   1.259       .  A
C60          O67   1.258       .  A
C60         O261   1.264   1_554  A
C60         C161   1.475       .  S
O61        In256   2.275       .  S
O61         C260   1.268       .  A
C62         C171   1.432       .  S
C62          O64   1.260       .  A
C62          O68   1.261       .  A
O63         C257   1.262       .  A
O64        In256   2.234       .  S
O65        In256   2.219       .  S
C66         C170   1.432       .  S
O68        In256   2.243       .  S
C69          C70   1.408       .  A
C69          C74   1.398       .  A
C69         C160   1.438       .  S
C70          C71   1.398       .  A
C70         C153   1.440       .  S
C71          C72   1.398       .  A
C71          H76   1.085   1_455  S
C72          C73   1.409       .  A
C72         C156   1.439       .  S
C73          C74   1.398       .  A
C73         C157   1.439       .  S
C74          H75   1.085       .  S
In77         O79   2.240       .  S
In77         O80   2.230       .  S
In77         O88   2.227       .  S
In77         O84   2.262       .  S
In77        O282   2.261       .  S
In77        O285   2.236       .  S
In77        O286   2.224       .  S
In77        O289   2.240       .  S
C78          O86   1.260       .  A
C78         O284   1.263       .  A
C78         C149   1.476       .  S
O79          C87   1.261       .  A
O80          C87   1.260       .  A
C81          O88   1.258       .  A
C81         O282   1.265       .  A
C81         C186   1.472       .  S
O82        In277   2.259       .  S
O82         C281   1.265   1_556  A
C83         C159   1.428       .  S
C83          O85   1.260       .  A
C83          O89   1.260       .  A
O84         C278   1.264       .  A
O85        In277   2.233   1_554  S
O86        In277   2.228       .  S
C87         C158   1.429       .  S
O89        In277   2.238   1_554  S
In90         O92   2.237       .  S
In90         O93   2.239       .  S
In90        O101   2.232       .  S
In90         O97   2.263       .  S
In90        O295   2.259   1_554  S
In90        O298   2.237   1_554  S
In90        O299   2.224   1_554  S
In90        O302   2.242   1_554  S
C91          O99   1.257       .  A
C91         O297   1.265       .  A
C91         C145   1.470       .  S
O92         C100   1.260       .  A
O93         C100   1.261       .  A
C94         O101   1.258       .  A
C94         O295   1.264   1_554  A
C94         C165   1.473       .  S
O95        In290   2.259       .  S
O95         C294   1.265       .  A
C96         C155   1.429       .  S
C96          O98   1.259       .  A
C96         O102   1.260       .  A
O97         C291   1.265   1_554  A
O98        In290   2.232       .  S
O99        In290   2.222       .  S
C100        C154   1.430       .  S
O102       In290   2.239       .  S
C103        C104   1.411       .  A
C103        C108   1.405   1_455  A
C103        C139   1.448   1_455  S
C104        C105   1.404       .  A
C104        C143   1.452       .  S
C105        C106   1.405       .  A
C105        H110   1.085       .  S
C106        C107   1.411       .  A
C106        C142   1.448       .  S
C107        C108   1.404   1_455  A
C107        C137   1.452   1_455  S
C108        H109   1.085       .  S
In111       O113   2.260   1_556  S
In111       O114   2.262   1_556  S
In111       O122   2.259   1_556  S
In111       O118   2.259       .  S
In111       O316   2.258   1_556  S
In111       O319   2.259       .  S
In111       O320   2.238       .  S
In111       O323   2.259       .  S
C112        O120   1.259       .  A
C112        O318   1.262       .  A
C112        C150   1.470       .  S
O113        C121   1.258       .  A
O114        C121   1.259       .  A
C115        O122   1.261       .  A
C115        O316   1.258       .  A
C115        C178   1.479       .  S
O116       In311   2.251       .  S
O116        C315   1.258       .  A
C117        C141   1.438       .  S
C117        O119   1.259       .  A
C117        O123   1.258       .  A
O118        C312   1.262       .  A
O119       In311   2.258       .  S
O120       In311   2.236       .  S
C121        C144   1.442       .  S
O123       In311   2.251       .  S
In124       O126   2.264       .  S
In124       O127   2.259       .  S
In124       O135   2.247       .  S
In124       O131   2.259       .  S
In124       O329   2.263       .  S
In124       O332   2.260       .  S
In124       O333   2.239       .  S
In124       O336   2.260       .  S
C125        O133   1.260   1_554  A
C125        O331   1.260       .  A
C125        C146   1.476       .  S
O126        C134   1.259       .  A
O127        C134   1.258       .  A
C128        O135   1.261       .  A
C128        O329   1.259       .  A
C128        C162   1.480       .  S
O129       In324   2.255       .  S
O129        C328   1.259       .  A
C130        C140   1.438       .  S
C130        O132   1.259       .  A
C130        O136   1.259       .  A
O131        C325   1.259       .  A
O132       In324   2.252   1_554  S
O133       In324   2.239       .  S
C134        C138   1.443       .  S
O136       In324   2.254   1_554  S
C137        C138   1.210       .  T
C139        C140   1.208       .  T
C141        C142   1.208       .  T
C143        C144   1.210       .  T
C145        C346   1.341       .  D
C145        H347   1.087       .  S
C146        C345   1.341   1_554  D
C146        H348   1.086       .  S
H147        C345   1.087       .  S
H148        C346   1.086       .  S
C149        C350   1.344       .  D
C149        H351   1.086       .  S
C150        C349   1.344       .  D
C150        H352   1.087       .  S
H151        C349   1.086       .  S
H152        C350   1.087       .  S
C153        C154   1.203   1_455  T
C155        C156   1.202   1_655  T
C157        C158   1.202       .  T
C159        C160   1.202       .  T
C161        C362   1.342   1_554  D
C161        H163   1.087       .  S
C162        C361   1.341       .  D
C162        H164   1.086       .  S
C165        C366   1.342       .  D
C165        H167   1.087       .  S
C166        C365   1.341       .  D
C166        H168   1.086       .  S
C169        C170   1.204       .  T
C171        C172   1.204       .  T
C173        C174   1.205       .  T
C175        C176   1.205       .  T
C177        C378   1.343       .  D
C177        H179   1.087       .  S
C178        C377   1.342       .  D
C178        H180   1.086       .  S
C181        C382   1.345       .  D
C181        H383   1.087       .  S
C182        C381   1.344       .  D
C182        H384   1.087       .  S
H183        C381   1.086       .  S
H184        C382   1.086       .  S
C185        C386   1.340   1_556  D
C185        H387   1.087       .  S
C186        C385   1.341       .  D
C186        H388   1.087       .  S
H187        C385   1.087       .  S
H188        C386   1.087       .  S
C189        C390   1.342       .  D
C189        H191   1.087       .  S
C190        C389   1.340       .  D
C190        H192   1.087       .  S
C193        C194   1.208       .  T
C195        C196   1.206       .  T
C197        C198   1.206       .  T
C199        C200   1.209       .  T
C201        C202   1.410   1_565  A
C201        C206   1.401       .  A
C201        C396   1.446       .  S
C202        C203   1.403       .  A
C202        C400   1.445       .  S
C203        C204   1.402       .  A
C203        H208   1.085       .  S
C204        C205   1.409   1_545  A
C204        C397   1.448       .  S
C205        C206   1.401       .  A
C205        C393   1.443       .  S
C206        H207   1.085       .  S
In209       O211   2.249       .  S
In209       O212   2.252       .  S
In209       O220   2.246       .  S
In209       O216   2.246       .  S
C210        O218   1.260       .  A
C210        C389   1.470       .  S
O211        C219   1.258       .  A
O212        C219   1.259       .  A
C213        O220   1.260       .  A
C213        C385   1.475       .  S
C215        C398   1.438       .  S
C215        O217   1.258       .  A
C215        O221   1.258       .  A
C219        C399   1.436       .  S
In222       O224   2.244   1_554  S
In222       O225   2.240   1_554  S
In222       O233   2.235   1_554  S
In222       O229   2.282       .  S
C223        O231   1.260       .  A
C223        C381   1.484       .  S
O224        C232   1.260       .  A
O225        C232   1.260       .  A
C226        O233   1.258   1_554  A
C226        C377   1.477       .  S
C228        C395   1.436       .  S
C228        O230   1.258       .  A
C228        O234   1.260       .  A
C232        C394   1.433       .  S
C235        C236   1.410   1_565  A
C235        C240   1.400       .  A
C235        C369   1.442       .  S
C236        C237   1.401       .  A
C236        C376   1.446       .  S
C237        C238   1.402       .  A
C237        H242   1.085       .  S
C238        C239   1.410   1_545  A
C238        C374   1.444       .  S
C239        C240   1.400       .  A
C239        C372   1.444       .  S
C240        H241   1.085       .  S
In243       O245   2.247       .  S
In243       O246   2.246       .  S
In243       O254   2.244   1_556  S
In243       O250   2.248       .  S
C244        O252   1.259       .  A
C244        C390   1.471       .  S
O245        C253   1.259       .  A
O246        C253   1.259       .  A
C247        O254   1.261       .  A
C247        C366   1.476       .  S
C249        C375   1.436       .  S
C249        O251   1.259       .  A
C249        O255   1.259       .  A
C253        C373   1.434       .  S
In256       O258   2.241       .  S
In256       O259   2.233       .  S
In256       O267   2.217       .  S
In256       O263   2.285       .  S
C257        O265   1.259   1_554  A
C257        C382   1.483       .  S
O258        C266   1.262       .  A
O259        C266   1.261       .  A
C260        O267   1.258       .  A
C260        C361   1.474       .  S
C262        C371   1.434       .  S
C262        O264   1.258       .  A
C262        O268   1.260       .  A
C266        C370   1.432       .  S
C269        C270   1.408       .  A
C269        C274   1.397       .  A
C269        C360   1.441       .  S
C270        C271   1.399       .  A
C270        C353   1.438       .  S
C271        C272   1.398       .  A
C271        H276   1.085   1_455  S
C272        C273   1.408       .  A
C272        C356   1.442       .  S
C273        C274   1.398       .  A
C273        C357   1.438       .  S
C274        H275   1.085       .  S
In277       O279   2.236       .  S
In277       O280   2.232       .  S
In277       O288   2.225   1_556  S
In277       O284   2.261       .  S
C278        O286   1.260       .  A
C278        C349   1.475       .  S
O279        C287   1.260       .  A
O280        C287   1.260       .  A
C281        O288   1.258       .  A
C281        C386   1.470       .  S
C283        C359   1.430       .  S
C283        O285   1.259       .  A
C283        O289   1.260       .  A
C287        C358   1.427       .  S
In290       O292   2.235       .  S
In290       O293   2.232       .  S
In290       O301   2.228       .  S
In290       O297   2.264       .  S
C291        O299   1.258       .  A
C291        C345   1.471       .  S
O292        C300   1.260       .  A
O293        C300   1.260       .  A
C294        O301   1.258       .  A
C294        C365   1.471       .  S
C296        C355   1.431       .  S
C296        O298   1.260       .  A
C296        O302   1.260       .  A
C300        C354   1.427       .  S
C303        C304   1.411       .  A
C303        C308   1.404   1_455  A
C303        C339   1.452   1_455  S
C304        C305   1.404       .  A
C304        C343   1.447       .  S
C305        C306   1.403       .  A
C305        H310   1.085       .  S
C306        C307   1.411       .  A
C306        C342   1.451       .  S
C307        C308   1.405   1_455  A
C307        C337   1.448   1_455  S
C308        H309   1.085       .  S
In311       O313   2.255       .  S
In311       O314   2.253       .  S
In311       O322   2.261       .  S
In311       O318   2.257       .  S
C312        O320   1.259       .  A
C312        C350   1.472       .  S
O313        C321   1.259       .  A
O314        C321   1.259       .  A
C315        O322   1.261       .  A
C315        C378   1.478       .  S
C317        C341   1.441       .  S
C317        O319   1.259       .  A
C317        O323   1.259       .  A
C321        C344   1.438       .  S
In324       O326   2.255       .  S
In324       O327   2.255       .  S
In324       O335   2.251   1_556  S
In324       O331   2.259   1_556  S
C325        O333   1.260       .  A
C325        C346   1.475       .  S
O326        C334   1.259       .  A
O327        C334   1.259       .  A
C328        O335   1.261   1_556  A
C328        C362   1.477       .  S
C330        C340   1.443       .  S
C330        O332   1.259       .  A
C330        O336   1.259       .  A
C334        C338   1.439       .  S
C337        C338   1.208       .  T
C339        C340   1.210       .  T
C341        C342   1.210       .  T
C343        C344   1.208       .  T
C353        C354   1.201   1_455  T
C355        C356   1.204   1_655  T
C357        C358   1.201       .  T
C359        C360   1.203       .  T
C361        H363   1.087       .  S
C362        H364   1.086       .  S
C365        H367   1.087       .  S
C366        H368   1.086   1_554  S
C369        C370   1.204       .  T
C371        C372   1.205       .  T
C373        C374   1.206       .  T
C375        C376   1.207       .  T
C377        H379   1.087   1_554  S
C378        H380   1.086       .  S
C389        H391   1.087   1_556  S
C390        H392   1.087       .  S
C393        C394   1.205       .  T
C395        C396   1.206       .  T
C397        C398   1.208       .  T
C399        C400   1.206       .  T
