geometry optimzed in LAMMPS
_audit_creation_date              2020-11-30 
_audit_creation_method            'lammps2cif' 
_symmetry_space_group_name_H-M    'P1' 
_symmetry_Int_Tables_number       1 
_symmetry_cell_setting            triclinic 
loop_ 
_symmetry_equiv_pos_as_xyz 
  x,y,z 
_cell_length_a                    52.70717605 
_cell_length_b                    52.762136205538305 
_cell_length_c                    28.082404156975098 
_cell_angle_alpha                 90.01032101750484 
_cell_angle_beta                  89.97261308395406 
_cell_angle_gamma                 120.23019037557668 
loop_ 
_atom_site_label 
_atom_site_type_symbol 
_atom_site_fract_x 
_atom_site_fract_y 
_atom_site_fract_z 
_atom_site_charge 
O1          O  0.47294618  0.05187188  0.58342499    -0.75400
O2          O  0.48708710  0.02889514  0.63705279    -0.54300
C3          C  0.47651594  0.04536211  0.62611766     0.78400
O4          O  0.41871790  0.94846141  0.41756317    -0.60000
O5          O  0.45544278  0.97321913  0.36362242    -0.53000
C6          C  0.42839434  0.95605105  0.37470571     0.70400
O7          O  0.41817925  0.94531370  0.57915529    -0.74500
O8          O  0.45489253  0.96724118  0.63398204    -0.55100
C9          C  0.42793260  0.95061699  0.62225661     0.76400
O10         O  0.47783286  0.05940597  0.42380993    -0.59700
O11         O  0.48820893  0.03501552  0.36726974    -0.52800
C12         C  0.48012480  0.05324517  0.38024113     0.73000
Zr13       Zr  0.48587133  0.04545102  0.50289095     2.54700
O14         O  0.44643024  0.05670804  0.50123507    -0.80200
O15         O  0.52170183  0.09753960  0.50896905    -0.93700
Zr16       Zr  0.43856332  0.95784842  0.49857445     2.64700
O17         O  0.39259007  0.95828003  0.50216043    -0.98600
O18         O  0.41320903  0.90450840  0.49545392    -0.80700
O19         O  0.46163076  0.00074514  0.54603537    -0.84000
O20         O  0.46171508  0.00259356  0.45564764    -2.18700
O21         O  0.57958936  0.05617628  0.42190659    -0.67400
O22         O  0.54389579  0.03301315  0.36590322    -0.52000
C23         C  0.57061882  0.05046881  0.37848460     0.71300
O24         O  0.52313962  0.94338203  0.57529513    -0.60300
O25         O  0.50990329  0.96515020  0.63247204    -0.52300
C26         C  0.52003837  0.94869487  0.61900503     0.73200
O27         O  0.52024567  0.94424238  0.41451447    -0.71700
O28         O  0.50976543  0.97046533  0.36162076    -0.50400
C29         C  0.51774790  0.95179384  0.37189307     0.74500
O30         O  0.57906925  0.05385087  0.58297326    -0.67100
O31         O  0.54271443  0.02657910  0.63621309    -0.54300
C32         C  0.56940921  0.04547597  0.62564551     0.72900
Zr33       Zr  0.55926303  0.04247026  0.50188656     2.77500
O34         O  0.60528126  0.04210545  0.50326313    -0.97800
O35         O  0.58421073  0.09580765  0.50325348    -0.78600
Zr36       Zr  0.51220166  0.95469952  0.49621663     2.70100
O37         O  0.55354772  0.94638838  0.49234889    -0.79900
O38         O  0.47847709  0.90196807  0.49573852    -0.99000
Zr39       Zr  0.49879679  0.99803717  0.58976414     2.21500
Zr40       Zr  0.49937662  0.00203477  0.40972243     2.11100
O41         O  0.53661343  0.99959907  0.45397230    -2.47600
O42         O  0.53632538  0.99746935  0.54409261    -0.79700
O43         O  0.52329388  0.04583084  0.45563721    -0.71900
O44         O  0.47475678  0.95425991  0.54362568    -2.32800
O45         O  0.52264935  0.04375169  0.54893727    -2.29000
O46         O  0.47510755  0.95642004  0.45090399    -0.73600
H47         H  0.44735778  0.00368573  0.43579153     0.78400
H48         H  0.46577962  0.93702374  0.56365096     0.79500
H49         H  0.55117419  0.99946898  0.43325705     0.81700
H50         H  0.53132622  0.06002208  0.57096288     0.79300
H51         H  0.39263285  0.89817945  0.50399073     0.42300
H52         H  0.46467291  0.89876145  0.46943152     0.41300
H53         H  0.57076041  0.96610792  0.48668404     0.41000
H54         H  0.60476491  0.03104983  0.47442811     0.38900
H55         H  0.60371307  0.10196534  0.51722286     0.42000
H56         H  0.52017340  0.10272039  0.54231490     0.36800
H57         H  0.42824696  0.03727159  0.50131157     0.42900
H58         H  0.39549893  0.97433869  0.48050787     0.39400
H59         H  0.62057784  0.06263561  0.49648128     0.44300
H60         H  0.51325876  0.10725122  0.48980232     0.43000
H61         H  0.37803999  0.94008198  0.48579754     0.43100
H62         H  0.49042548  0.89363533  0.48382687     0.43500
O63         O  0.05277896  0.57665403  0.58598585    -0.75400
O64         O  0.02948659  0.53958552  0.63981439    -0.54300
C65         C  0.04657229  0.56659175  0.62882863     0.78400
O66         O  0.93941003  0.51687293  0.42315090    -0.60000
O67         O  0.96764324  0.51075904  0.36798970    -0.53000
C68         C  0.94729671  0.51607112  0.37998753     0.70400
O69         O  0.94145012  0.51838193  0.58402217    -0.74500
O70         O  0.96694176  0.50778961  0.63803749    -0.55100
C71         C  0.94817362  0.51559048  0.62699584     0.76400
O72         O  0.05662342  0.57939938  0.42402376    -0.59700
O73         O  0.03063403  0.54459262  0.36788416    -0.52800
C74         C  0.04958635  0.57083907  0.38053382     0.73000
Zr75       Zr  0.04201010  0.55852351  0.50418237     2.54700
O76         O  0.04044752  0.60380731  0.50618326    -0.80200
O77         O  0.09536486  0.58546053  0.50857917    -0.93700
Zr78       Zr  0.95425229  0.51186717  0.50330333     2.64700
O79         O  0.95183990  0.55677105  0.50447398    -0.98600
O80         O  0.90099011  0.48114526  0.50676563    -0.80700
O81         O  0.99793135  0.53509302  0.54913627    -0.84000
O82         O  0.99833222  0.53667384  0.45838186    -2.18700
O83         O  0.05788843  0.47835576  0.41974625    -0.67400
O84         O  0.03292811  0.48978652  0.36576718    -0.52000
C85         C  0.05116112  0.48132718  0.37686299     0.71300
O86         O  0.94701151  0.41676367  0.57838219    -0.60300
O87         O  0.96964800  0.45214825  0.63503380    -0.52300
C88         C  0.95319398  0.42543239  0.62188337     0.73200
O89         O  0.94394256  0.42025688  0.41747339    -0.71700
O90         O  0.97027470  0.45707854  0.36455737    -0.50400
C91         C  0.95132910  0.43038199  0.37483254     0.74500
O92         O  0.05832628  0.47724785  0.57941656    -0.67100
O93         O  0.03123906  0.48481919  0.63488553    -0.54300
C94         C  0.05054035  0.47803455  0.62255234     0.72900
Zr95       Zr  0.04469931  0.48472069  0.50022214     2.77500
O96         O  0.04602777  0.43925867  0.50187519    -0.97800
O97         O  0.09791235  0.51580317  0.49785722    -0.78600
Zr98       Zr  0.95713621  0.43832914  0.49904810     2.70100
O99         O  0.95894817  0.39323264  0.49369706    -0.79900
O100        O  0.90362496  0.41183945  0.50026288    -0.99000
Zr101      Zr  0.99915906  0.49697859  0.59197405     2.21500
Zr102      Zr  0.00030437  0.50005221  0.41169993     2.11100
O103        O  0.00114322  0.46162266  0.45429029    -2.47600
O104        O  0.00071543  0.46035806  0.54515389    -0.79700
O105        O  0.04463617  0.52297202  0.45607098    -0.71900
O106        O  0.95455824  0.47377937  0.54765317    -2.32800
O107        O  0.04392230  0.52126193  0.54833646    -2.29000
O108        O  0.95536957  0.47563249  0.45484221    -0.73600
H109        H  0.99787124  0.55135434  0.43849528     0.78400
H110        H  0.93767724  0.46448154  0.56843311     0.79500
H111        H  0.00159087  0.44746592  0.43305131     0.81700
H112        H  0.06070849  0.52986954  0.56936878     0.79300
H113        H  0.89371387  0.49515761  0.50800805     0.42300
H114        H  0.89793412  0.39095506  0.49683950     0.41300
H115        H  0.97681044  0.39745553  0.51169080     0.41000
H116        H  0.03058615  0.42612416  0.47920850     0.38900
H117        H  0.10367498  0.52257132  0.53106051     0.42000
H118        H  0.10085016  0.60628669  0.50513357     0.36800
H119        H  0.01926533  0.59725449  0.50812446     0.42900
H120        H  0.96207274  0.56740839  0.47512298     0.39400
H121        H  0.06473777  0.44406507  0.48615143     0.44300
H122        H  0.10185808  0.58071634  0.47847973     0.43000
H123        H  0.93091442  0.55027749  0.49865620     0.43100
H124        H  0.89830385  0.41354649  0.53344383     0.43500
O125        O  0.53002594  0.58229209  0.58141377    -0.75400
O126        O  0.51670682  0.54553617  0.63533398    -0.54300
C127        C  0.52697497  0.57266778  0.62447291     0.78400
O128        O  0.42070973  0.47924894  0.42302768    -0.60000
O129        O  0.45506155  0.48848027  0.36610206    -0.53000
C130        C  0.42876552  0.48047603  0.37940609     0.70400
O131        O  0.42366160  0.48138354  0.58359861    -0.74500
O132        O  0.45919613  0.48761355  0.63656100    -0.55100
C133        C  0.43295552  0.48129558  0.62598504     0.76400
O134        O  0.53052655  0.58295658  0.42082955    -0.59700
O135        O  0.51226645  0.54605214  0.36579179    -0.52800
C136        C  0.52455969  0.57316690  0.37791481     0.73000
Zr137      Zr  0.52065349  0.56207250  0.50067075     2.54700
O138        O  0.49344599  0.58807117  0.50056547    -0.80200
O139        O  0.56822059  0.60710231  0.49843218    -0.93700
Zr140      Zr  0.44273415  0.48937068  0.50229266     2.64700
O141        O  0.42521295  0.52418243  0.50067560    -0.98600
O142        O  0.39248194  0.44851497  0.50587089    -0.80700
O143        O  0.48182376  0.52612542  0.54812056    -0.84000
O144        O  0.48052958  0.52631679  0.45515525    -2.18700
O145        O  0.57859583  0.52173231  0.41473886    -0.67400
O146        O  0.54256509  0.51452683  0.36226612    -0.52000
C147        C  0.56894435  0.52123434  0.37239390     0.71300
O148        O  0.47673863  0.42072630  0.57809599    -0.60300
O149        O  0.49046173  0.45733771  0.63237898    -0.52300
C150        C  0.48107712  0.43048363  0.62123806     0.73200
O151        O  0.47170041  0.42131004  0.41670873    -0.71700
O152        O  0.48563604  0.45810703  0.36283848    -0.50400
C153        C  0.47508604  0.43098218  0.37359676     0.74500
O154        O  0.58081322  0.52086806  0.57619561    -0.67100
O155        O  0.54623248  0.51228407  0.63259708    -0.54300
C156        C  0.57239880  0.51949470  0.61974057     0.72900
Zr157      Zr  0.55986507  0.51421428  0.49623667     2.77500
O158        O  0.58165225  0.48305289  0.49396807    -0.97800
O159        O  0.60759865  0.55888597  0.49270071    -0.78600
Zr160      Zr  0.48214456  0.44118821  0.49785934     2.70100
O161        O  0.51087834  0.41681342  0.49334296    -0.79900
O162        O  0.43533989  0.39533693  0.50117411    -0.99000
Zr163      Zr  0.50248089  0.50143149  0.58936244     2.21500
Zr164      Zr  0.49956999  0.50172694  0.40917595     2.11100
O165        O  0.52063347  0.47746121  0.45073963    -2.47600
O166        O  0.52194072  0.47726125  0.54340426    -0.79700
O167        O  0.53971103  0.53844368  0.45303564    -0.71900
O168        O  0.46249646  0.46448556  0.54500373    -2.32800
O169        O  0.54151711  0.53855591  0.54378632    -2.29000
O170        O  0.46085372  0.46462689  0.45500613    -0.73600
H171        H  0.47261488  0.53550743  0.43504605     0.78400
H172        H  0.44766739  0.44990900  0.56561793     0.79500
H173        H  0.52791984  0.46845965  0.42888779     0.81700
H174        H  0.55696621  0.55281008  0.56390129     0.79300
H175        H  0.39431478  0.43197247  0.51843283     0.42300
H176        H  0.42243197  0.39820435  0.47889991     0.41300
H177        H  0.52807353  0.42866199  0.51406006     0.41000
H178        H  0.57420651  0.47163728  0.46414550     0.38900
H179        H  0.60331018  0.57395967  0.48057502     0.42000
H180        H  0.58016005  0.60439118  0.52292577     0.36800
H181        H  0.50767591  0.60795160  0.48877167     0.42900
H182        H  0.40484266  0.51272842  0.48856981     0.39400
H183        H  0.60274527  0.49676305  0.48770076     0.44300
H184        H  0.56457520  0.62236557  0.51169164     0.43000
H185        H  0.42299271  0.52783722  0.53458089     0.43100
H186        H  0.43903821  0.38075680  0.48526025     0.43500
O187        O  0.78840678  0.49348615  0.00178208    -0.75400
O188        O  0.83667125  0.52878079  0.00575931    -0.54300
C189        C  0.81591922  0.50184103  0.00307802     0.78400
O190        O  0.74523707  0.57106128  0.86759303    -0.60000
O191        O  0.71512574  0.57179274  0.92486692    -0.53000
C192        C  0.72127477  0.56974073  0.88129873     0.70400
O193        O  0.82874250  0.56814588  0.87268933    -0.74500
O194        O  0.85835068  0.56956393  0.93320484    -0.55100
C195        C  0.85085491  0.56682528  0.88906227     0.76400
O196        O  0.70382493  0.49464770  0.01033743    -0.59700
O197        O  0.69239750  0.53076775  0.00313803    -0.52800
C198        C  0.68535233  0.50375131  0.00816051     0.73000
Zr199      Zr  0.75640453  0.51421625  0.00455921     2.54700
O200        O  0.73590910  0.47746672  0.94179341    -0.80200
O201        O  0.73809118  0.47613265  0.06541723    -0.93700
Zr202      Zr  0.78924400  0.57488949  0.90303789     2.64700
O203        O  0.77306157  0.53972370  0.83772285    -0.98600
O204        O  0.81230624  0.61676620  0.84941967    -0.80700
O205        O  0.79679176  0.54379912  0.95465134    -0.84000
O206        O  0.74811757  0.54391209  0.95129605    -2.18700
O207        O  0.74202783  0.57334015  0.13079300    -0.67400
O208        O  0.71356103  0.57461093  0.07093069    -0.52000
C209        C  0.71897993  0.57305669  0.11505216     0.71300
O210        O  0.87337456  0.65741503  0.00479046    -0.60300
O211        O  0.88302645  0.61980872  0.00897104    -0.52300
C212        C  0.89106893  0.64722323  0.00811667     0.73200
O213        O  0.78711210  0.65885045  0.99972827    -0.71700
O214        O  0.73941351  0.62167129  0.99796816    -0.50400
C215        C  0.75911110  0.64906271  0.99897859     0.74500
O216        O  0.82586155  0.57098691  0.13776817    -0.67100
O217        O  0.85628981  0.57016480  0.08101743    -0.54300
C218        C  0.84765411  0.56816043  0.12443229     0.72900
Zr219      Zr  0.78752646  0.57757384  0.10204569     2.77500
O220        O  0.80841853  0.61929816  0.15630566    -0.97800
O221        O  0.76893620  0.54575005  0.17148309    -0.78600
Zr222      Zr  0.81992382  0.63781761  0.99999525     2.70100
O223        O  0.83980430  0.67840118  0.05636666    -0.79900
O224        O  0.83853526  0.67106282  0.93221098    -0.99000
Zr225      Zr  0.83625983  0.57465866  0.00583538     2.21500
Zr226      Zr  0.73968025  0.57598922  0.99966410     2.11100
O227        O  0.77932841  0.60821900  0.05048860    -2.47600
O228        O  0.82863743  0.60783016  0.05347056    -0.79700
O229        O  0.74745972  0.54558055  0.05306810    -0.71900
O230        O  0.82945713  0.60608917  0.95254574    -2.32800
O231        O  0.79549431  0.54455109  0.05587777    -2.29000
O232        O  0.77994326  0.60697085  0.94924642    -0.73600
H233        H  0.73121767  0.53134054  0.93198170     0.78400
H234        H  0.84676575  0.61741022  0.93328072     0.79500
H235        H  0.77413839  0.62032259  0.06913882     0.81700
H236        H  0.79926325  0.53194278  0.07590675     0.79300
H237        H  0.81187705  0.60816162  0.81789570     0.42300
H238        H  0.82119255  0.66488559  0.91151282     0.41300
H239        H  0.84458130  0.69588308  0.03685178     0.41000
H240        H  0.82948617  0.62539880  0.15842201     0.38900
H241        H  0.75229892  0.52720575  0.15925811     0.42000
H242        H  0.75497953  0.48164137  0.08687968     0.36800
H243        H  0.75049591  0.48572035  0.91569379     0.42900
H244        H  0.75231282  0.52521714  0.84501603     0.39400
H245        H  0.80811160  0.63532115  0.13848221     0.44300
H246        H  0.73528329  0.45839708  0.04860971     0.43000
H247        H  0.77216054  0.55054705  0.80958525     0.43100
H248        H  0.84283221  0.69028787  0.94512233     0.43500
O249        O  0.70518191  0.21227530  0.98974118    -0.75400
O250        O  0.69236567  0.16451779  0.00146020    -0.54300
C251        C  0.68611347  0.18478254  0.99359893     0.78400
O252        O  0.82623808  0.24878932  0.85942774    -0.60000
O253        O  0.85741170  0.28162837  0.91385234    -0.53000
C254        C  0.84953643  0.27278012  0.87083937     0.70400
O255        O  0.73824385  0.16657457  0.87182476    -0.74500
O256        O  0.71080248  0.13879108  0.93447601    -0.55100
C257        C  0.71519208  0.14447451  0.88965914     0.76400
O258        O  0.79195349  0.29736308  0.00169383    -0.59700
O259        O  0.83951207  0.30920413  0.98997686    -0.52800
C260        C  0.81956266  0.31594918  0.99753637     0.73000
Zr261      Zr  0.75810204  0.24475411  0.99600859     2.54700
O262        O  0.74371924  0.26709357  0.93366451    -0.80200
O263        O  0.73644830  0.26090855  0.05675534    -0.93700
Zr264      Zr  0.78420696  0.20870089  0.89857964     2.64700
O265        O  0.76351881  0.22597642  0.83778397    -0.98600
O266        O  0.79886736  0.18433064  0.84035297    -0.80700
O267        O  0.74613103  0.20265795  0.94998014    -0.84000
O268        O  0.79584337  0.25164795  0.94280493    -2.18700
O269        O  0.83355812  0.26297296  0.12423840    -0.67400
O270        O  0.86190354  0.29057957  0.06215242    -0.52000
C271        C  0.85565552  0.28613665  0.10683327     0.71300
O272        O  0.78536407  0.12929302  0.00789344    -0.60300
O273        O  0.73786995  0.11916341  0.01278653    -0.52300
C274        C  0.75749618  0.11151052  0.01270046     0.73200
O275        O  0.87242273  0.21503358  0.99297236    -0.71700
O276        O  0.88340710  0.26266971  0.98832186    -0.50400
C277        C  0.89080077  0.24284742  0.98939839     0.74500
O278        O  0.74816303  0.17802076  0.13558582    -0.67100
O279        O  0.71563344  0.14634010  0.08137714    -0.54300
C280        C  0.72351981  0.15534374  0.12437914     0.72900
Zr281      Zr  0.79162572  0.21728156  0.09688035     2.77500
O282        O  0.81396600  0.19827587  0.15128068    -0.97800
O283        O  0.77793762  0.23789733  0.16279077    -0.78600
Zr284      Zr  0.81868696  0.18234473  0.99874848     2.70100
O285        O  0.84027243  0.16617762  0.05966965    -0.79900
O286        O  0.83308757  0.16124610  0.93439848    -0.99000
Zr287      Zr  0.73868851  0.16513587  0.00459724     2.21500
Zr288      Zr  0.83716920  0.26205069  0.99137421     2.11100
O289        O  0.83037564  0.22435615  0.04562259    -2.47600
O290        O  0.78031704  0.17501617  0.05181224    -0.79700
O291        O  0.79910338  0.25546797  0.04420773    -0.71900
O292        O  0.77661020  0.17060479  0.95156749    -2.32800
O293        O  0.74980159  0.20734430  0.05093606    -2.29000
O294        O  0.82642228  0.22005256  0.94459672    -0.73600
H295        H  0.80025163  0.26783294  0.92172854     0.78400
H296        H  0.77058943  0.15273439  0.93390255     0.79500
H297        H  0.84795955  0.23019789  0.06401313     0.81700
H298        H  0.73356486  0.20384963  0.07122436     0.79300
H299        H  0.81908294  0.18974258  0.84973230     0.42300
H300        H  0.84958306  0.17825780  0.91827736     0.41300
H301        H  0.85531736  0.18442213  0.07532621     0.41000
H302        H  0.80461659  0.19718036  0.18239044     0.38900
H303        H  0.77094961  0.25013593  0.14738088     0.42000
H304        H  0.73638839  0.27801667  0.04239148     0.36800
H305        H  0.73463661  0.25176794  0.90881620     0.42900
H306        H  0.77490591  0.24764128  0.84002860     0.39400
H307        H  0.80581237  0.17755546  0.14161654     0.44300
H308        H  0.75155431  0.26940106  0.08203409     0.43000
H309        H  0.76969556  0.22142015  0.80718950     0.43100
H310        H  0.84230136  0.15126089  0.95068008     0.43500
O311        O  0.29555925  0.78712238  0.00058651    -0.75400
O312        O  0.30795305  0.83525589  0.99954525    -0.54300
C313        C  0.31444860  0.81479681  0.00011940     0.78400
O314        O  0.17023288  0.74291633  0.86757222    -0.60000
O315        O  0.13976401  0.71337693  0.92576725    -0.53000
C316        C  0.14702172  0.71967892  0.88175925     0.70400
O317        O  0.25715578  0.82634708  0.86738797    -0.74500
O318        O  0.28660648  0.85724738  0.92566025    -0.55100
C319        C  0.28066132  0.84920290  0.88194271     0.76400
O320        O  0.20861756  0.70211461  0.00585843    -0.59700
O321        O  0.16076387  0.69048264  0.99958427    -0.52800
C322        C  0.18085121  0.68362461  0.00391335     0.73000
Zr323      Zr  0.24235894  0.75483457  0.99989063     2.54700
O324        O  0.25820067  0.73635502  0.93366732    -0.80200
O325        O  0.26146529  0.73483372  0.05875324    -0.93700
Zr326      Zr  0.21242861  0.78601355  0.90021221     2.64700
O327        O  0.23281431  0.76809463  0.83989152    -0.98600
O328        O  0.19296987  0.80447232  0.83928456    -0.80700
O329        O  0.25251042  0.79466957  0.94919137    -0.84000
O330        O  0.20282950  0.74545955  0.94896571    -2.18700
O331        O  0.17226328  0.74209556  0.13298042    -0.67400
O332        O  0.14144904  0.71305543  0.07431266    -0.52000
C333        C  0.14937647  0.71867081  0.11819242     0.71300
O334        O  0.21576902  0.87116484  0.00437127    -0.60300
O335        O  0.26313152  0.88106007  0.99993236    -0.52300
C336        C  0.24379317  0.88901684  0.00287325     0.73200
O337        O  0.12857675  0.78521394  0.99996893    -0.71700
O338        O  0.11735304  0.73733269  0.99759721    -0.50400
C339        C  0.11027456  0.75734311  0.99832334     0.74500
O340        O  0.25646131  0.82835744  0.13191958    -0.67100
O341        O  0.28620875  0.85785731  0.07273098    -0.54300
C342        C  0.28006580  0.85099658  0.11681802     0.72900
Zr343      Zr  0.21235935  0.78679900  0.09921931     2.77500
O344        O  0.19146341  0.80637744  0.15560107    -0.97800
O345        O  0.23196771  0.77033624  0.16279552    -0.78600
Zr346      Zr  0.18220579  0.81777685  0.99949206     2.70100
O347        O  0.16248486  0.83532669  0.06129836    -0.79900
O348        O  0.16668623  0.83744453  0.93450444    -0.99000
Zr349      Zr  0.26155556  0.83459267  0.99933183     2.21500
Zr350      Zr  0.16327516  0.73765055  0.99963615     2.11100
O351        O  0.17204098  0.77765949  0.05019251    -2.47600
O352        O  0.22213200  0.82715678  0.04999746    -0.79700
O353        O  0.20291699  0.74633830  0.05042636    -0.71900
O354        O  0.22195054  0.82672734  0.94852634    -2.32800
O355        O  0.25227902  0.79475846  0.05026959    -2.29000
O356        O  0.17219439  0.77757506  0.94906483    -0.73600
H357        H  0.19781476  0.72838918  0.92976261     0.78400
H358        H  0.22728077  0.84369636  0.92877874     0.79500
H359        H  0.15512066  0.77266742  0.06985762     0.81700
H360        H  0.26913263  0.79939271  0.06982617     0.79300
H361        H  0.20768133  0.81142568  0.81332477     0.42300
H362        H  0.16108955  0.82285319  0.90859382     0.41300
H363        H  0.17595921  0.83974186  0.08860299     0.41000
H364        H  0.17148477  0.78987918  0.16240295     0.38900
H365        H  0.23518192  0.75523514  0.14763820     0.42000
H366        H  0.27301885  0.75123243  0.08102687     0.36800
H367        H  0.26602824  0.72477245  0.94887090     0.42900
H368        H  0.22423930  0.74694629  0.84687784     0.39400
H369        H  0.20251623  0.80899176  0.18544993     0.44300
H370        H  0.27630387  0.73214878  0.04140124     0.43000
H371        H  0.22341271  0.76870363  0.80973618     0.43100
H372        H  0.14787829  0.83542057  0.94536007     0.43500
O373        O  0.57301016  0.82849954  0.86641843    -0.75400
O374        O  0.57478758  0.85988820  0.92340964    -0.54300
C375        C  0.57181761  0.85119017  0.87999605     0.78400
O376        O  0.49632330  0.70609794  0.99056862    -0.60000
O377        O  0.53257570  0.69486248  0.00052397    -0.53000
C378        C  0.50563231  0.68785102  0.99469524     0.70400
O379        O  0.49576743  0.79133608  0.98580928    -0.74500
O380        O  0.53150474  0.83920214  0.99577666    -0.55100
C381        C  0.50465953  0.81889139  0.98959443     0.76400
O382        O  0.58145748  0.74789677  0.86832631    -0.59700
O383        O  0.57631848  0.71659056  0.92857558    -0.52800
C384        C  0.57818510  0.72352528  0.88426449     0.73000
Zr385      Zr  0.58165378  0.79106037  0.90032128     2.54700
O386        O  0.54873472  0.77066246  0.83247802    -0.80200
O387        O  0.62486220  0.81658425  0.84974859    -0.93700
Zr388      Zr  0.51610152  0.75894143  0.99346479     2.64700
O389        O  0.48027748  0.74103335  0.92908667    -0.98600
O390        O  0.47848272  0.74012831  0.05510218    -0.80700
O391        O  0.54835019  0.79913004  0.94530473    -0.84000
O392        O  0.54853385  0.75046609  0.94710203    -2.18700
O393        O  0.66070470  0.78911002  0.00062458    -0.67400
O394        O  0.62350993  0.74133563  0.00033022    -0.52000
C395        C  0.65084786  0.76118202  0.99886945     0.71300
O396        O  0.56876943  0.83000228  0.12954216    -0.60300
O397        O  0.57323651  0.86147802  0.07024470    -0.52300
C398        C  0.56907961  0.85311780  0.11394694     0.73200
O399        O  0.57025250  0.74539372  0.13391455    -0.71700
O400        O  0.57402175  0.71699550  0.07641094    -0.50400
C401        C  0.57097804  0.72251472  0.12001071     0.74500
O402        O  0.65959423  0.87506762  0.00466452    -0.67100
O403        O  0.62219483  0.88500712  0.99910682    -0.54300
C404        C  0.64951375  0.89283174  0.00155733     0.72900
Zr405      Zr  0.63965120  0.82162000  0.00575466     2.77500
O406        O  0.67095223  0.83668558  0.07601512    -0.97800
O407        O  0.68152941  0.84306325  0.95190883    -0.78600
Zr408      Zr  0.57414614  0.78961683  0.09930274     2.70100
O409        O  0.61147577  0.81006273  0.16130869    -0.79900
O410        O  0.53481458  0.77091503  0.15810803    -0.99000
Zr411      Zr  0.57715896  0.83844039  0.99813686     2.21500
Zr412      Zr  0.57783046  0.74174852  0.00171894     2.11100
O413        O  0.60749986  0.78122052  0.05450025    -2.47600
O414        O  0.60720041  0.83051099  0.05249167    -0.79700
O415        O  0.61110303  0.78190630  0.95325637    -0.71900
O416        O  0.54420776  0.79811055  0.04634399    -2.32800
O417        O  0.61084238  0.83118583  0.95121055    -2.29000
O418        O  0.54468717  0.74960370  0.04821682    -0.73600
H419        H  0.53715401  0.73373327  0.92675542     0.78400
H420        H  0.53111495  0.80243977  0.06398630     0.79500
H421        H  0.61877461  0.77609088  0.07539475     0.81700
H422        H  0.62313754  0.84828448  0.93206132     0.79300
H423        H  0.47737852  0.75738800  0.06603706     0.42300
H424        H  0.52127160  0.75033601  0.14852504     0.41300
H425        H  0.60055908  0.80178495  0.19135734     0.41000
H426        H  0.69082350  0.85063521  0.06378425     0.38900
H427        H  0.67299272  0.84277997  0.92038654     0.42000
H428        H  0.61712983  0.81140575  0.81689788     0.36800
H429        H  0.52988390  0.76828428  0.84395512     0.42900
H430        H  0.48710723  0.73114974  0.90685342     0.39400
H431        H  0.66517674  0.84904630  0.09428326     0.44300
H432        H  0.63574167  0.80602577  0.85474316     0.43000
H433        H  0.46215265  0.72489925  0.94343410     0.43100
H434        H  0.54391182  0.76942209  0.18802234     0.43500
O435        O  0.20995288  0.50599224  0.99366842    -0.75400
O436        O  0.16196575  0.46982918  0.99249072    -0.54300
C437        C  0.18229921  0.49697245  0.99145790     0.78400
O438        O  0.25955618  0.42822856  0.86759054    -0.60000
O439        O  0.28890661  0.42931264  0.92802050    -0.53000
C440        C  0.28301727  0.42938509  0.88361178     0.70400
O441        O  0.17508408  0.42975522  0.86384800    -0.74500
O442        O  0.14327530  0.42709829  0.92156191    -0.55100
C443        C  0.15177572  0.42948836  0.87804307     0.76400
O444        O  0.29617785  0.50881644  0.00373888    -0.59700
O445        O  0.30921138  0.47378403  0.00106914    -0.52800
C446        C  0.31548418  0.50073332  0.00307831     0.73000
Zr447      Zr  0.24325285  0.48696027  0.99997442     2.54700
O448        O  0.26317797  0.52416731  0.93794109    -0.80200
O449        O  0.25683803  0.52231817  0.06451099    -0.93700
Zr450      Zr  0.21529596  0.42633821  0.89856972     2.64700
O451        O  0.23383424  0.46250752  0.83460706    -0.98600
O452        O  0.19432783  0.38514254  0.84346789    -0.80700
O453        O  0.20477114  0.45653060  0.94768869    -0.84000
O454        O  0.25438437  0.45815565  0.94915932    -2.18700
O455        O  0.25576554  0.42865853  0.13297788    -0.67400
O456        O  0.28637201  0.42934458  0.07492849    -0.52000
C457        C  0.27985600  0.43044447  0.11868813     0.71300
O458        O  0.12944834  0.34275942  0.99567055    -0.60300
O459        O  0.11821627  0.37932946  0.99864510    -0.52300
C460        C  0.11110191  0.35220482  0.99707782     0.73200
O461        O  0.21699405  0.34444030  0.99386896    -0.71700
O462        O  0.26439265  0.38224795  0.99778003    -0.50400
C463        C  0.24503577  0.35479973  0.99528369     0.74500
O464        O  0.17040935  0.42848393  0.12845421    -0.67100
O465        O  0.14120494  0.42899834  0.06936331    -0.54300
C466        C  0.14841936  0.43055315  0.11349033     0.72900
Zr467      Zr  0.21117797  0.42384312  0.09781217     2.77500
O468        O  0.18784167  0.38086981  0.14917202    -0.97800
O469        O  0.22630624  0.45604544  0.16691685    -0.78600
Zr470      Zr  0.18315590  0.36387269  0.99570163     2.70100
O471        O  0.16577052  0.32457566  0.05407491    -0.79900
O472        O  0.16429756  0.32946001  0.92948196    -0.99000
Zr473      Zr  0.16429333  0.42504904  0.99691563     2.21500
Zr474      Zr  0.26281166  0.42721024  0.00011582     2.11100
O475        O  0.22212244  0.39415084  0.04851934    -2.47600
O476        O  0.17179505  0.39281709  0.04689249    -0.79700
O477        O  0.25232507  0.45673271  0.05113141    -0.71900
O478        O  0.17399689  0.39466299  0.94577939    -2.32800
O479        O  0.20324904  0.45591428  0.04910226    -2.29000
O480        O  0.22427890  0.39536532  0.94769945    -0.73600
H481        H  0.27157567  0.47076188  0.93044057     0.78400
H482        H  0.15735387  0.38285818  0.92545873     0.79500
H483        H  0.22716513  0.38224424  0.06805303     0.81700
H484        H  0.19845907  0.46819070  0.06808140     0.79300
H485        H  0.20574576  0.39306153  0.81374496     0.42300
H486        H  0.18200058  0.33234549  0.91241615     0.41300
H487        H  0.17169960  0.33477325  0.08514530     0.41000
H488        H  0.19501071  0.38863290  0.18151383     0.38900
H489        H  0.22807410  0.47451494  0.15491816     0.42000
H490        H  0.27559517  0.53950422  0.05423805     0.36800
H491        H  0.25622022  0.51289757  0.90789392     0.42900
H492        H  0.25501529  0.47531847  0.84143514     0.39400
H493        H  0.16683407  0.37516541  0.14962411     0.44300
H494        H  0.26231775  0.51369934  0.09109808     0.43000
H495        H  0.23320599  0.45137037  0.80581214     0.43100
H496        H  0.15605598  0.30991929  0.94457974     0.43500
O497        O  0.42598895  0.17107047  0.86445025    -0.75400
O498        O  0.42387974  0.13965642  0.92168521    -0.54300
C499        C  0.42583921  0.14772284  0.87796608     0.78400
O500        O  0.50711241  0.29501281  0.98977533    -0.60000
O501        O  0.47155161  0.30732910  0.99796288    -0.53000
C502        C  0.49843269  0.31379783  0.99305044     0.70400
O503        O  0.50590335  0.20929297  0.99408737    -0.74500
O504        O  0.46969600  0.16123176  0.99304876    -0.55100
C505        C  0.49686097  0.18164727  0.99402627     0.76400
O506        O  0.42508323  0.25528091  0.86483832    -0.59700
O507        O  0.42840320  0.28613606  0.92467298    -0.52800
C508        C  0.42821926  0.27962079  0.88040794     0.82000
Zr509      Zr  0.42113166  0.21086263  0.89813030     2.54700
O510        O  0.45292389  0.22790225  0.82851210    -0.80200
O511        O  0.37793353  0.18984375  0.84708724    -0.93700
Zr512      Zr  0.48600589  0.24199242  0.99256658     2.64700
O513        O  0.52046339  0.25665756  0.92642206    -0.98600
O514        O  0.52559516  0.26169937  0.05071533    -0.80700
O515        O  0.45400820  0.20216209  0.94341856    -0.84000
O516        O  0.45459141  0.25124547  0.94512715    -2.18700
O517        O  0.34285360  0.21481880  0.00164671    -0.67400
O518        O  0.38042016  0.26250250  0.00275613    -0.52000
C519        C  0.35299841  0.24282294  0.00272307     0.71300
O520        O  0.42680631  0.16932211  0.12967141    -0.60300
O521        O  0.42796979  0.14070492  0.06984996    -0.52300
C522        C  0.42855294  0.14731021  0.11413976     0.73200
O523        O  0.43266902  0.25683995  0.13133073    -0.71700
O524        O  0.43003610  0.28596227  0.07394984    -0.50400
C525        C  0.43321735  0.28033902  0.11746224     0.74500
O526        O  0.34167105  0.12716074  0.00767354    -0.67100
O527        O  0.37899049  0.11717574  0.00192560    -0.54300
C528        C  0.35180909  0.10932868  0.00716744     0.72900
Zr529      Zr  0.36238793  0.18090081  0.00186530     2.77500
O530        O  0.32725509  0.16440628  0.06728622    -0.97800
O531        O  0.32440547  0.16032304  0.94088023    -0.78600
Zr532      Zr  0.42695926  0.21205384  0.09678328     2.70100
O533        O  0.39030751  0.19612631  0.15978324    -0.79900
O534        O  0.46755979  0.22795065  0.15241407    -0.99000
Zr535      Zr  0.42440123  0.16298801  0.99618144     2.21500
Zr536      Zr  0.42551287  0.26096481  0.99890480     2.11100
O537        O  0.39481173  0.22124513  0.05068018    -2.47600
O538        O  0.39422035  0.17159525  0.04925934    -0.79700
O539        O  0.39188457  0.22094446  0.95018930    -0.71900
O540        O  0.45693748  0.20295697  0.04515708    -2.32800
O541        O  0.39126509  0.17073540  0.94860637    -2.29000
O542        O  0.45756926  0.25209480  0.04649415    -0.73600
H543        H  0.46659665  0.26788054  0.92496202     0.78400
H544        H  0.46937795  0.19824334  0.06383858     0.79500
H545        H  0.38372376  0.22666884  0.07147338     0.81700
H546        H  0.37879330  0.15359383  0.92971459     0.79300
H547        H  0.54342367  0.27487623  0.03213825     0.42300
H548        H  0.48155202  0.24850776  0.14333257     0.41300
H549        H  0.40062373  0.19528141  0.18867194     0.41000
H550        H  0.33260279  0.18230948  0.08601758     0.38900
H551        H  0.32929671  0.17684073  0.91892890     0.42000
H552        H  0.38584658  0.19703680  0.81480028     0.36800
H553        H  0.47299708  0.23627129  0.84164886     0.42900
H554        H  0.51688266  0.27034934  0.90742491     0.39400
H555        H  0.30831746  0.15930484  0.05210308     0.44300
H556        H  0.36771853  0.20064080  0.85561881     0.43000
H557        H  0.53999058  0.26920861  0.94104346     0.43100
H558        H  0.45948570  0.22934896  0.18350048     0.43500
C559        C  0.25645605  0.33408046  0.99424626    -0.20000
C560        C  0.24175087  0.30632602  0.01681486     0.36300
C561        C  0.25507243  0.28885201  0.01809795    -0.25900
C562        C  0.28284204  0.29873284  0.99782157     0.02700
C563        C  0.29718711  0.32604634  0.97438180     0.27500
C564        C  0.28383381  0.34331784  0.97265191    -0.25100
N565        N  0.21397117  0.29645405  0.03987085    -0.82400
H566        H  0.24420373  0.26785788  0.03617521     0.13300
C567        C  0.29771438  0.28128490  0.00303550     0.02700
N568        N  0.32532721  0.33613000  0.95237678    -0.81000
H569        H  0.29512337  0.36439602  0.95483933     0.18100
C570        C  0.29343614  0.26022617  0.96856685    -0.25900
C571        C  0.31007013  0.24601480  0.96925484     0.36200
C572        C  0.33193743  0.25370949  0.00437395    -0.19900
C573        C  0.33552371  0.27417424  0.03961884    -0.25100
C574        C  0.31824361  0.28760761  0.03983994     0.27500
H575        H  0.27760795  0.25544927  0.94039917     0.13300
N576        N  0.30598538  0.22509376  0.93293943    -0.82400
H577        H  0.35210550  0.27988338  0.06685716     0.18200
N578        N  0.32138929  0.30759214  0.07730639    -0.81000
H579        H  0.28999652  0.22290698  0.90860343     0.33800
H580        H  0.29767183  0.20466295  0.94941894     0.38300
H581        H  0.33701171  0.30943175  0.10212654     0.33700
H582        H  0.32946683  0.32840743  0.06243028     0.30400
H583        H  0.33265101  0.35636436  0.93570574     0.33700
H584        H  0.34050372  0.33976220  0.97923334     0.30400
H585        H  0.21754445  0.31059714  0.06842174     0.38300
H586        H  0.20606716  0.27557912  0.05448353     0.33800
C587        C  0.34681336  0.52475762  0.00503593    -0.20000
C588        C  0.37044518  0.52177773  0.98760511     0.36300
C589        C  0.39911787  0.54635405  0.98754972    -0.25900
C590        C  0.40456808  0.57360691  0.00455301     0.02700
C591        C  0.38128345  0.57659074  0.02236782     0.27500
C592        C  0.35282353  0.55223616  0.02266732    -0.25100
N593        N  0.36527094  0.49441555  0.96808487    -0.82400
H594        H  0.41718435  0.54448184  0.97315731     0.13300
C595        C  0.43387447  0.59997882  0.99886948     0.02700
N596        N  0.38651258  0.60475377  0.03825728    -0.81000
H597        H  0.33511372  0.55498079  0.03624993     0.18100
C598        C  0.43925973  0.61679491  0.95750735    -0.25900
C599        C  0.46381589  0.64509906  0.95425954     0.36200
C600        C  0.48325813  0.65657169  0.99312241    -0.19900
C601        C  0.47918937  0.63893614  0.03301120    -0.25100
C602        C  0.45439959  0.61066028  0.03648237     0.27500
H603        H  0.42343578  0.60833675  0.92870231     0.13300
N604        N  0.46869416  0.66263779  0.91235055    -0.82400
H605        H  0.49438012  0.64790800  0.06261611     0.18200
N606        N  0.44958073  0.59314019  0.07837755    -0.81000
H607        H  0.45228527  0.65101752  0.88709656     0.33800
H608        H  0.48844953  0.66658425  0.89705024     0.38300
H609        H  0.46690225  0.60416514  0.10243662     0.33700
H610        H  0.43074696  0.59046093  0.09538612     0.30400
H611        H  0.36688977  0.60351554  0.04879085     0.33700
H612        H  0.39978595  0.61053565  0.06855072     0.30400
H613        H  0.35963556  0.47961415  0.99628842     0.38300
H614        H  0.38457750  0.49670370  0.95350735     0.33800
C615        C  0.25523770  0.92118845  0.00373899    -0.20000
C616        C  0.24119499  0.93399706  0.02881070     0.36300
C617        C  0.25429286  0.96485096  0.02996574    -0.25900
C618        C  0.28097354  0.98296165  0.00649637     0.02700
C619        C  0.29442212  0.97013504  0.98029003     0.27500
C620        C  0.28167330  0.93955806  0.97972649    -0.25100
N621        N  0.21425751  0.91581448  0.05403437    -0.82400
H622        H  0.24415989  0.97485151  0.05031948     0.13300
C623        C  0.29627493  0.01535191  0.01210555     0.02700
N624        N  0.32119629  0.98836257  0.95460024    -0.81000
H625        H  0.29250248  0.92999241  0.96021696     0.18100
C626        C  0.32338419  0.02915233  0.03554650    -0.25900
C627        C  0.34089949  0.05979313  0.03672615     0.36200
C628        C  0.33137363  0.07725612  0.01307414    -0.19900
C629        C  0.30331485  0.06348084  0.99216078    -0.25100
C630        C  0.28561131  0.03257319  0.99147989     0.27500
H631        H  0.33119636  0.01580639  0.05216251     0.13300
N632        N  0.36852711  0.07326122  0.06157435    -0.82400
H633        H  0.29577934  0.07673971  0.97448979     0.18200
N634        N  0.25731759  0.01862882  0.96885936    -0.81000
H635        H  0.37244275  0.05738316  0.07645600     0.33800
H636        H  0.36698296  0.08523096  0.08998225     0.38300
H637        H  0.25266698  0.03436068  0.95558148     0.33700
H638        H  0.25827847  0.00694039  0.93951833     0.30400
H639        H  0.32846836  0.97558022  0.93747038     0.33700
H640        H  0.31645126  0.99912835  0.92783744     0.30400
H641        H  0.21883076  0.90532951  0.08149532     0.38300
H642        H  0.20673276  0.92865064  0.07023363     0.33800
C643        C  0.17433285  0.52019992  0.98744578    -0.20000
C644        C  0.14769089  0.51699562  0.00515375     0.36300
C645        C  0.14387801  0.54162125  0.00614516    -0.25900
C646        C  0.16604532  0.56900545  0.98971580     0.02700
C647        C  0.19153895  0.57165426  0.96895479     0.27500
C648        C  0.19539658  0.54731214  0.96797752    -0.25100
N649        N  0.12514834  0.48929246  0.02354132    -0.82400
H650        H  0.12418738  0.53980705  0.02158923     0.13300
C651        C  0.16427631  0.59570074  0.99824843     0.02700
N652        N  0.21388438  0.59944139  0.95039562    -0.81000
H653        H  0.21546118  0.54980926  0.95289892     0.18100
C654        C  0.18107040  0.61430236  0.03542525    -0.25900
C655        C  0.18500837  0.64252583  0.03981079     0.36200
C656        C  0.17202557  0.65232022  0.00611168    -0.19900
C657        C  0.15334559  0.63290453  0.97105425    -0.25100
C658        C  0.14960054  0.60462724  0.96646190     0.27500
H659        H  0.19218364  0.60718692  0.05981834     0.13300
N660        N  0.20276910  0.66164834  0.07757139    -0.82400
H661        H  0.14329726  0.64048399  0.94536424     0.18200
N662        N  0.13205948  0.58546858  0.92861989    -0.81000
H663        H  0.21085462  0.65117533  0.09919505     0.33800
H664        H  0.18912525  0.66590543  0.09905400     0.38300
H665        H  0.12266308  0.59530298  0.90848503     0.33700
H666        H  0.14607776  0.58260484  0.90574687     0.30400
H667        H  0.23156952  0.59786331  0.93707575     0.33700
H668        H  0.20485903  0.60463500  0.92146847     0.30400
H669        H  0.13333355  0.48482975  0.05435358     0.38300
H670        H  0.10680452  0.49061695  0.03398805     0.33800
C671        C  0.34577642  0.82310669  0.00067670    -0.20000
C672        C  0.36656693  0.84427317  0.96916368     0.36300
C673        C  0.39503112  0.84813827  0.96671291    -0.25900
C674        C  0.40318510  0.83193869  0.99617082     0.02700
C675        C  0.38285118  0.81191832  0.02924101     0.27500
C676        C  0.35433829  0.80758606  0.03092184    -0.25100
N677        N  0.35831665  0.86060087  0.93816313    -0.82400
H678        H  0.41076424  0.86342529  0.94128902     0.13300
C679        C  0.43201748  0.83383608  0.98978753     0.02700
N680        N  0.39104972  0.79548020  0.06011634    -0.81000
H681        H  0.33846057  0.79154821  0.05538982     0.18100
C682        C  0.45296019  0.84560932  0.02637006    -0.25900
C683        C  0.47795639  0.84248793  0.02575792     0.36200
C684        C  0.48185318  0.82724103  0.98778739    -0.19900
C685        C  0.46174928  0.81694208  0.94997442    -0.25100
C686        C  0.43689118  0.82020106  0.95047586     0.27500
H687        H  0.44901923  0.85599340  0.05651577     0.13300
N688        N  0.49856464  0.85344306  0.06454452    -0.82400
H689        H  0.46494858  0.80539074  0.92078418     0.18200
N690        N  0.41594561  0.80866068  0.91222555    -0.81000
H691        H  0.49251314  0.86413332  0.08954233     0.33800
H692        H  0.49751287  0.83543011  0.08199288     0.38300
H693        H  0.42293844  0.79956780  0.88582584     0.33700
H694        H  0.39635486  0.79148391  0.92592783     0.30400
H695        H  0.37364719  0.78187350  0.08263854     0.33700
H696        H  0.39515018  0.78168405  0.03879571     0.30400
H697        H  0.35481805  0.87483109  0.95940544     0.38300
H698        H  0.37561711  0.87391870  0.91526960     0.33800
C699        C  0.74688546  0.07971219  0.01690025    -0.20000
C700        C  0.72241504  0.06125759  0.04573388     0.36300
C701        C  0.71065834  0.03075284  0.04401471    -0.25900
C702        C  0.72248139  0.01833550  0.01356012     0.02700
C703        C  0.74722843  0.03660278  0.98556540     0.27500
C704        C  0.75961729  0.06722666  0.98827545    -0.25100
N705        N  0.70919608  0.07349717  0.07579565    -0.82400
H706        H  0.69145807  0.01645735  0.06511649     0.13300
C707        C  0.70651383  0.98612997  0.00768269     0.02700
N708        N  0.75866100  0.02389965  0.95278874    -0.81000
H709        H  0.77819954  0.08129293  0.96585577     0.18100
C710        C  0.68465681  0.97373083  0.97274901    -0.25900
C711        C  0.66666662  0.94319222  0.96879596     0.36200
C712        C  0.67056993  0.92474224  0.00075754    -0.19900
C713        C  0.69328979  0.93717552  0.03449575    -0.25100
C714        C  0.71125668  0.96783927  0.03846195     0.27500
H715        H  0.68123394  0.98801748  0.94920318     0.13300
N716        N  0.64427900  0.93079715  0.93273111    -0.82400
H717        H  0.69618143  0.92298889  0.05905179     0.18200
N718        N  0.73354151  0.98051225  0.07457314    -0.81000
H719        H  0.64418132  0.94733447  0.91235534     0.33800
H720        H  0.64968125  0.91871047  0.90956936     0.38300
H721        H  0.73388187  0.96405189  0.09480912     0.33700
H722        H  0.75386831  0.99186599  0.05740207     0.30400
H723        H  0.77648409  0.04031791  0.93394035     0.33700
H724        H  0.76672505  0.01274887  0.97271746     0.30400
H725        H  0.72462017  0.08630942  0.10167232     0.38300
H726        H  0.69109559  0.05692252  0.09392414     0.33800
C727        C  0.92289736  0.25343555  0.98605076    -0.20000
C728        C  0.93667737  0.24102752  0.01298604     0.36300
C729        C  0.96762014  0.25481199  0.01320973    -0.25900
C730        C  0.98496698  0.28015344  0.98619939     0.02700
C731        C  0.97125746  0.29154957  0.95724112     0.27500
C732        C  0.94047133  0.27822116  0.95768753    -0.25100
N733        N  0.91949164  0.21548829  0.04188016    -0.82400
H734        H  0.97834736  0.24612837  0.03525979     0.13300
C735        C  0.01744776  0.29611749  0.99143210     0.02700
N736        N  0.98872067  0.31701979  0.92828554    -0.81000
H737        H  0.93011845  0.28761912  0.93637104     0.18100
C738        C  0.03504177  0.29475366  0.95511617    -0.25900
C739        C  0.06593933  0.31168208  0.95751393     0.36200
C740        C  0.07929044  0.33066605  0.99655540    -0.19900
C741        C  0.06166751  0.33165939  0.03313159    -0.25100
C742        C  0.03088651  0.31437461  0.03118611     0.27500
H743        H  0.02458924  0.28086997  0.92448522     0.13300
N744        N  0.08370406  0.31093767  0.91929252    -0.82400
H745        H  0.07199659  0.34648423  0.06283304     0.18200
N746        N  0.01314629  0.31577751  0.06885400    -0.81000
H747        H  0.07044941  0.29680747  0.89232838     0.33800
H748        H  0.09595376  0.30195405  0.93273870     0.38300
H749        H  0.02640482  0.33004846  0.09568610     0.33700
H750        H  0.00108337  0.32479628  0.05472488     0.30400
H751        H  0.97528192  0.32246554  0.90865141     0.33700
H752        H  0.00114586  0.33467595  0.95110080     0.30400
H753        H  0.90766735  0.19778388  0.01887009     0.38300
H754        H  0.93314429  0.21038625  0.06163780     0.33800
C755        C  0.65481638  0.17631892  0.98927713    -0.20000
C756        C  0.64608280  0.19149219  0.95795744     0.36300
C757        C  0.61718033  0.18604068  0.95978026    -0.25900
C758        C  0.59672994  0.16550716  0.99161365     0.02700
C759        C  0.60465911  0.14872455  0.02040778     0.27500
C760        C  0.63370812  0.15417382  0.01871964    -0.25100
N761        N  0.66669328  0.21265262  0.92486019    -0.82400
H762        H  0.61077011  0.19863674  0.93745883     0.13300
C763        C  0.56879736  0.16529961  0.99824825     0.02700
N764        N  0.58341376  0.12669029  0.05168426    -0.81000
H765        H  0.64023801  0.14214093  0.04213196     0.18100
C766        C  0.54434954  0.14742104  0.96966529    -0.25900
C767        C  0.51974671  0.15132921  0.96882432     0.36200
C768        C  0.51999030  0.17364197  0.99699729    -0.19900
C769        C  0.54403221  0.19052048  0.02696990    -0.25100
C770        C  0.56832343  0.18649068  0.02805022     0.27500
H771        H  0.54508293  0.13140525  0.94643227     0.13300
N772        N  0.49532198  0.13378464  0.93795616    -0.82400
H773        H  0.54411856  0.20743361  0.04901274     0.18200
N774        N  0.59322435  0.20479400  0.05762003    -0.81000
H775        H  0.49861316  0.11839163  0.91972669     0.33800
H776        H  0.49456626  0.14768067  0.91216060     0.38300
H777        H  0.58973208  0.21985424  0.07649672     0.33700
H778        H  0.59506145  0.19131362  0.08298913     0.30400
H779        H  0.59271099  0.11608551  0.06997866     0.33700
H780        H  0.57766078  0.13724056  0.07737966     0.30400
H781        H  0.67276471  0.20141518  0.90100310     0.38300
H782        H  0.65676986  0.22192509  0.90463611     0.33800
C783        C  0.92315882  0.66833474  0.01051895    -0.20000
C784        C  0.94162059  0.66279603  0.03996793     0.36300
C785        C  0.97218854  0.68151469  0.03778994    -0.25900
C786        C  0.98476047  0.70555525  0.00680687     0.02700
C787        C  0.96651113  0.71185113  0.97860480     0.27500
C788        C  0.93578448  0.69326217  0.98098077    -0.25100
N789        N  0.92927564  0.63805864  0.07175870    -0.82400
H790        H  0.98641568  0.67692645  0.05947524     0.13300
C791        C  0.01714549  0.72227034  0.00194884     0.02700
N792        N  0.97932118  0.73659726  0.94689382    -0.81000
H793        H  0.92172793  0.69757176  0.95836792     0.18100
C794        C  0.02999459  0.71574618  0.96370737    -0.25900
C795        C  0.06055101  0.72766238  0.96130618     0.36200
C796        C  0.07857738  0.74710816  0.99720812    -0.19900
C797        C  0.06583787  0.75461964  0.03445023    -0.25100
C798        C  0.03513493  0.74195670  0.03757605     0.27500
H799        H  0.01599741  0.70034948  0.93673682     0.13300
N800        N  0.07336964  0.71961221  0.92321484    -0.82400
H801        H  0.07975648  0.76925528  0.06226588     0.18200
N802        N  0.02203599  0.74813915  0.07748660    -0.81000
H803        H  0.05711254  0.70481476  0.90005999     0.33800
H804        H  0.08674204  0.73853445  0.90344214     0.38300
H805        H  0.03824224  0.76269124  0.10095326     0.33700
H806        H  0.01131795  0.75884351  0.06448682     0.30400
H807        H  0.96292908  0.73810385  0.92836026     0.33700
H808        H  0.99028168  0.75553543  0.96772759     0.30400
H809        H  0.91675395  0.64146799  0.09709211     0.38300
H810        H  0.94583248  0.63691419  0.09043398     0.33800
C811        C  0.74791847  0.67015439  0.00033701    -0.20000
C812        C  0.76390043  0.69919271  0.98244065     0.36300
C813        C  0.75092494  0.71708168  0.98267778    -0.25900
C814        C  0.72223266  0.70639598  0.99974951     0.02700
C815        C  0.70672206  0.67787844  0.01884909     0.27500
C816        C  0.71962349  0.66019069  0.01898807    -0.25100
N817        N  0.79275779  0.71014732  0.96283425    -0.82400
H818        H  0.76280774  0.73905940  0.96807319     0.13300
C819        C  0.70740947  0.72405628  0.99530025     0.02700
N820        N  0.67763150  0.66687039  0.03760908    -0.81000
H821        H  0.70727609  0.63826645  0.03368493     0.18100
C822        C  0.68414472  0.71476811  0.96290314    -0.25900
C823        C  0.66649493  0.72776247  0.96192705     0.36200
C824        C  0.67203472  0.75049651  0.99431681    -0.19900
C825        C  0.69645008  0.76107623  0.02477742    -0.25100
C826        C  0.71405293  0.74784463  0.02589784     0.27500
H827        H  0.67924487  0.69667381  0.93915147     0.13300
N828        N  0.64264467  0.71770290  0.92854358    -0.82400
H829        H  0.70086361  0.77864118  0.04939752     0.18200
N830        N  0.73804152  0.75784301  0.05888340    -0.81000
H831        H  0.64141614  0.70083803  0.90731553     0.33800
H832        H  0.64727423  0.73513883  0.90563877     0.38300
H833        H  0.74008677  0.77552117  0.07880227     0.33700
H834        H  0.73294167  0.74082783  0.08298113     0.30400
H835        H  0.66900695  0.64540948  0.05007933     0.33700
H836        H  0.67933461  0.67972580  0.06711796     0.30400
H837        H  0.79059481  0.69788577  0.93227966     0.38300
H838        H  0.80157379  0.73189880  0.95173780     0.33800
C839        C  0.82346638  0.47825126  0.00058374    -0.20000
C840        C  0.84919959  0.48094240  0.02131693     0.36300
C841        C  0.85407294  0.45699171  0.01935445    -0.25900
C842        C  0.83353324  0.43049459  0.99788352     0.02700
C843        C  0.80808216  0.42788054  0.97697724     0.27500
C844        C  0.80341154  0.45174339  0.97825350    -0.25100
N845        N  0.86957085  0.50733810  0.04598032    -0.82400
H846        H  0.87327765  0.45853360  0.03624843     0.13300
C847        C  0.83632824  0.40408845  0.00235074     0.02700
N848        N  0.78648202  0.40047972  0.95618783    -0.81000
H849        H  0.78366138  0.44940744  0.96216777     0.18100
C850        C  0.82116845  0.38466135  0.03959185    -0.25900
C851        C  0.81691570  0.35621969  0.03990330     0.36200
C852        C  0.82833484  0.34716484  0.00233494    -0.19900
C853        C  0.84557568  0.36738255  0.96699822    -0.25100
C854        C  0.84935433  0.39580686  0.96628737     0.27500
H855        H  0.81119770  0.39121705  0.06709712     0.13300
N856        N  0.80016634  0.33609351  0.07735941    -0.82400
H857        H  0.85442798  0.36038550  0.93834536     0.18200
N858        N  0.86536215  0.41585586  0.92835944    -0.81000
H859        H  0.79305560  0.34607627  0.10195420     0.33800
H860        H  0.81418188  0.33088014  0.09574428     0.38300
H861        H  0.87360891  0.40640385  0.90479833     0.33700
H862        H  0.85059171  0.41950128  0.90891039     0.30400
H863        H  0.76854959  0.40184872  0.94357222     0.33700
H864        H  0.79604096  0.39659396  0.92654785     0.30400
H865        H  0.85874219  0.50928853  0.07575402     0.38300
H866        H  0.88729348  0.50572741  0.05896799     0.33800
C867        C  0.65396616  0.48079876  0.01140729    -0.20000
C868        C  0.63255948  0.47999861  0.98018110     0.36300
C869        C  0.60453117  0.45459016  0.97841833    -0.25900
C870        C  0.59752141  0.43043618  0.00782243     0.02700
C871        C  0.61833271  0.43188991  0.04076483     0.27500
C872        C  0.64627768  0.45707200  0.04232032    -0.25100
N873        N  0.63987080  0.50405002  0.94836053    -0.82400
H874        H  0.58838928  0.45319865  0.95305838     0.13300
C875        C  0.56962978  0.40250202  0.00064118     0.02700
N876        N  0.61152452  0.40708991  0.07055367    -0.81000
H877        H  0.66259857  0.45774684  0.06658107     0.18100
C878        C  0.56847832  0.38421042  0.96345369    -0.25900
C879        C  0.54463055  0.35553446  0.95884548     0.36200
C880        C  0.52143718  0.34504282  0.99209681    -0.19900
C881        C  0.52171870  0.36389648  0.02757355    -0.25100
C882        C  0.54561627  0.39249339  0.03249137     0.27500
H883        H  0.58686230  0.39198757  0.93907474     0.13300
N884        N  0.54417082  0.33676267  0.92130001    -0.82400
H885        H  0.50391796  0.35587137  0.05316662     0.18200
N886        N  0.54517485  0.41019061  0.07108170    -0.81000
H887        H  0.56299370  0.34773113  0.90015042     0.33800
H888        H  0.52629148  0.33191828  0.89928536     0.38300
H889        H  0.52726514  0.41323777  0.06567529     0.33700
H890        H  0.56381458  0.43106839  0.07094730     0.30400
H891        H  0.62961888  0.41129926  0.09153663     0.33700
H892        H  0.59494533  0.40429547  0.09408551     0.30400
H893        H  0.64303990  0.52185401  0.96912685     0.38300
H894        H  0.62223156  0.49919548  0.92576846     0.33800
C895        C  0.43807410  0.30243463  0.15449175    -0.20000
C896        C  0.45474188  0.30553947  0.19591095     0.36300
C897        C  0.45799987  0.32592125  0.23093955    -0.25900
C898        C  0.44566050  0.34382967  0.22520559     0.02700
C899        C  0.42949560  0.34124426  0.18363917     0.27500
C900        C  0.42585317  0.32055001  0.14866072    -0.25100
N901        N  0.46887960  0.28848480  0.20188686    -0.82400
H902        H  0.47088239  0.32840395  0.26249400     0.13300
C903        C  0.45107018  0.36597581  0.26243869     0.02700
N904        N  0.41681896  0.35959397  0.17731289    -0.81000
H905        H  0.41309559  0.31828304  0.11705142     0.18100
C906        C  0.46695421  0.39583449  0.25084722    -0.25900
C907        C  0.47428499  0.41759237  0.28574072     0.36200
C908        C  0.46617600  0.40919828  0.33396648    -0.19900
C909        C  0.44968963  0.37907972  0.34496163    -0.25100
C910        C  0.44189860  0.35749508  0.30975220     0.27500
H911        H  0.47407720  0.40218711  0.21438764     0.13300
N912        N  0.49076906  0.44801054  0.27228856    -0.82400
H913        H  0.44280122  0.37218811  0.38131883     0.18200
N914        N  0.42475892  0.32692263  0.32184946    -0.81000
H915        H  0.49692535  0.45020434  0.23645411     0.33800
H916        H  0.47671930  0.45654120  0.27517411     0.38300
H917        H  0.41986481  0.32432452  0.35822987     0.33700
H918        H  0.40472815  0.31827812  0.30386494     0.30400
H919        H  0.40569756  0.35507543  0.14480524     0.33700
H920        H  0.40110006  0.35423392  0.20404461     0.30400
H921        H  0.47980254  0.29306267  0.23458742     0.38300
H922        H  0.48495747  0.29499680  0.17544800     0.33800
C923        C  0.43412451  0.30238251  0.84458209    -0.20000
C924        C  0.41776624  0.29568467  0.80203384     0.36300
C925        C  0.42637982  0.31723014  0.76652064    -0.25900
C926        C  0.45121617  0.34512043  0.77247906     0.02700
C927        C  0.46745486  0.35189253  0.81519540     0.27500
C928        C  0.45852478  0.33051834  0.85106621    -0.25100
N929        N  0.39247628  0.26708284  0.79517705    -0.82400
H930        H  0.41372949  0.31228717  0.73395278     0.13300
C931        C  0.45976579  0.36707843  0.73379567     0.02700
N932        N  0.49333573  0.38016767  0.82140304    -0.81000
H933        H  0.47139919  0.33540041  0.88339536     0.18100
C934        C  0.46153128  0.39390640  0.74359633    -0.25900
C935        C  0.46963014  0.41542171  0.70826276     0.36200
C936        C  0.47455839  0.40932530  0.66095148    -0.19900
C937        C  0.47271882  0.38227310  0.65135912    -0.25100
C938        C  0.46600861  0.36139298  0.68750609     0.27500
H939        H  0.45680685  0.39818374  0.77930521     0.13300
N940        N  0.47262953  0.44325057  0.72060818    -0.82400
H941        H  0.47701303  0.37753796  0.61568975     0.18200
N942        N  0.46580129  0.33455728  0.67759700    -0.81000
H943        H  0.46560670  0.44299343  0.75552348     0.33800
H944        H  0.49505596  0.45877491  0.72022064     0.38300
H945        H  0.47095615  0.33375539  0.64187838     0.33700
H946        H  0.48253167  0.33467474  0.69777251     0.30400
H947        H  0.50280162  0.38158676  0.85473260     0.33700
H948        H  0.50871614  0.38211848  0.79596953     0.30400
H949        H  0.37685462  0.26439277  0.82068866     0.38300
H950        H  0.38298025  0.26570548  0.76188785     0.33800
C951        C  0.58978168  0.52908581  0.33248922    -0.20000
C952        C  0.59003932  0.54666028  0.29419551     0.36300
C953        C  0.61113254  0.55461555  0.25816392    -0.25900
C954        C  0.63142051  0.54492217  0.25912764     0.02700
C955        C  0.63093737  0.52701872  0.29676735     0.27500
C956        C  0.61031642  0.51957697  0.33347792    -0.25100
N957        N  0.56983710  0.55745273  0.29298724    -0.82400
H958        H  0.61188853  0.56855536  0.22920067     0.13300
C959        C  0.65344145  0.55409202  0.22079638     0.02700
N960        N  0.65125792  0.51637096  0.29726624    -0.81000
H961        H  0.60997766  0.50596524  0.36265878     0.18100
C962        C  0.68315602  0.57168589  0.23241564    -0.25900
C963        C  0.70497391  0.57973512  0.19770529     0.36200
C964        C  0.69677876  0.56947270  0.15055628    -0.19900
C965        C  0.66688091  0.55322787  0.13842244    -0.25100
C966        C  0.64505812  0.54528496  0.17327580     0.27500
H967        H  0.68929100  0.57895638  0.26886535     0.13300
N968        N  0.73538894  0.59815008  0.21019023    -0.82400
H969        H  0.66053735  0.54548836  0.10222215     0.18200
N970        N  0.61451474  0.52770122  0.16098433    -0.81000
H971        H  0.73758872  0.60363649  0.24632697     0.33800
H972        H  0.74337991  0.61777741  0.19124977     0.38300
H973        H  0.61207957  0.52314364  0.12449478     0.33700
H974        H  0.60617776  0.50756226  0.17847935     0.30400
H975        H  0.64804339  0.50353115  0.32750798     0.33700
H976        H  0.64653405  0.50254209  0.26785644     0.30400
H977        H  0.54911085  0.53977699  0.28465925     0.38300
H978        H  0.57515301  0.57258395  0.26533453     0.33800
C979        C  0.59440840  0.52751623  0.65805071    -0.20000
C980        C  0.62424756  0.54891910  0.65092756     0.36300
C981        C  0.64414346  0.55622177  0.68869309    -0.25900
C982        C  0.63488156  0.54285061  0.73335380     0.02700
C983        C  0.60511231  0.52188509  0.74091115     0.27500
C984        C  0.58510963  0.51455006  0.70323394    -0.25100
N985        N  0.63418791  0.56358874  0.60582719    -0.82400
H986        H  0.66706609  0.57251852  0.68343372     0.13300
C987        C  0.65700843  0.55011300  0.77113752     0.02700
N988        N  0.59549075  0.50778975  0.78648833    -0.81000
H989        H  0.56223230  0.49826560  0.70896799     0.18100
C990        C  0.65526867  0.56320678  0.81347066    -0.25900
C991        C  0.67564910  0.56985131  0.85014667     0.36200
C992        C  0.69892219  0.56390503  0.84404431    -0.19900
C993        C  0.70052166  0.55094592  0.80113586    -0.25100
C994        C  0.67969019  0.54373059  0.76497395     0.27500
H995        H  0.63779222  0.56814645  0.81812315     0.13300
N996        N  0.67215331  0.58287946  0.89256300    -0.82400
H997        H  0.71770923  0.54565920  0.79604477     0.18200
N998        N  0.68113933  0.52946502  0.72225145    -0.81000
H999        H  0.69160075  0.60259940  0.89907495     0.33800
H1000       H  0.66767606  0.56853390  0.92108998     0.38300
H1001       H  0.69921084  0.52634274  0.72317887     0.33700
H1002       H  0.66242657  0.50857663  0.72131984     0.30400
H1003       H  0.57288854  0.49293656  0.78617543     0.33700
H1004       H  0.60574069  0.49548641  0.79233748     0.30400
H1005       H  0.62409136  0.57608739  0.60053053     0.38300
H1006       H  0.65680697  0.57835982  0.60649902     0.33800
C1007       C  0.56743658  0.70071839  0.15677051    -0.20000
C1008       C  0.57619924  0.70901906  0.20456310     0.36300
C1009       C  0.57032594  0.68732445  0.23875485    -0.25900
C1010       C  0.55613027  0.65753976  0.22641836     0.02700
C1011       C  0.54815491  0.64923764  0.17852710     0.27500
C1012       C  0.55396193  0.67090862  0.14421349    -0.25100
N1013       N  0.59086183  0.73938295  0.21839704    -0.82400
H1014       H  0.57630491  0.69363792  0.27558066     0.13300
C1015       C  0.54858411  0.63537901  0.26462000     0.02700
N1016       N  0.53400281  0.61884120  0.16503608    -0.81000
H1017       H  0.54722508  0.66437598  0.10768386     0.18100
C1018       C  0.51913881  0.61341984  0.27087872    -0.25900
C1019       C  0.51083887  0.59293594  0.30797541     0.36200
C1020       C  0.53237464  0.59467469  0.33955086    -0.19900
C1021       C  0.56172325  0.61673274  0.33392955    -0.25100
C1022       C  0.57015756  0.63688505  0.29623539     0.27500
H1023       H  0.50250647  0.61262359  0.24725808     0.13300
N1024       N  0.48056830  0.57077068  0.31446010    -0.82400
H1025       H  0.57815146  0.61773731  0.35830294     0.18200
N1026       N  0.60053071  0.65863561  0.28952826    -0.81000
H1027       H  0.46746589  0.57249106  0.28819227     0.33800
H1028       H  0.47364783  0.57483692  0.34702359     0.38300
H1029       H  0.61351706  0.65685988  0.31596081     0.33700
H1030       H  0.60723788  0.65413877  0.25713115     0.30400
H1031       H  0.52936239  0.61641454  0.12857043     0.33700
H1032       H  0.54885985  0.61156099  0.17112805     0.30400
H1033       H  0.61108368  0.75005114  0.20077716     0.38300
H1034       H  0.59550318  0.74163896  0.25486189     0.33800
C1035       C  0.53609572  0.59453463  0.66396176    -0.20000
C1036       C  0.54155253  0.58839398  0.71079786     0.36300
C1037       C  0.54995554  0.60987325  0.74646411    -0.25900
C1038       C  0.55279668  0.63728654  0.73697821     0.02700
C1039       C  0.54760306  0.64358248  0.69034290     0.27500
C1040       C  0.53961529  0.62232251  0.65441214    -0.25100
N1041       N  0.53887259  0.56057754  0.72220693    -0.82400
H1042       H  0.55446354  0.60524022  0.78206599     0.13300
C1043       C  0.56053954  0.65883371  0.77651175     0.02700
N1044       N  0.54984357  0.67130320  0.67976054    -0.81000
H1045       H  0.53547262  0.62735745  0.61885416     0.18100
C1046       C  0.58431212  0.68756517  0.77121287    -0.25900
C1047       C  0.59104282  0.70879802  0.80664954     0.36200
C1048       C  0.57431564  0.70117149  0.84877788    -0.19900
C1049       C  0.55148133  0.67216467  0.85520576    -0.25100
C1050       C  0.54403451  0.65104370  0.81920227     0.27500
H1051       H  0.59751044  0.69366727  0.73911260     0.13300
N1052       N  0.61501869  0.73806000  0.79995498    -0.82400
H1053       H  0.53840712  0.66635630  0.88743008     0.18200
N1054       N  0.51919405  0.62202520  0.82521991    -0.81000
H1055       H  0.63410866  0.73701527  0.79469631     0.33800
H1056       H  0.61104185  0.74651444  0.76900202     0.38300
H1057       H  0.50946579  0.61989775  0.85855600     0.33700
H1058       H  0.50348960  0.61919872  0.79979665     0.30400
H1059       H  0.54564182  0.67256192  0.64371100     0.33700
H1060       H  0.53340046  0.67238837  0.69891293     0.30400
H1061       H  0.54259761  0.55933362  0.75847849     0.38300
H1062       H  0.55551308  0.55932659  0.70398489     0.33800
C1063       C  0.30184660  0.43471051  0.15540142    -0.20000
C1064       C  0.33236239  0.45174963  0.14627222     0.36300
C1065       C  0.35235432  0.45652286  0.18300962    -0.25900
C1066       C  0.34260393  0.44494554  0.22868079     0.02700
C1067       C  0.31222555  0.42747899  0.23761376     0.27500
C1068       C  0.29216840  0.42264787  0.20095077    -0.25100
N1069       N  0.34298914  0.46503023  0.10037898    -0.82400
H1070       H  0.37569313  0.47030692  0.17651881     0.13300
C1071       C  0.36438886  0.45310881  0.26759075     0.02700
N1072       N  0.30191794  0.41500120  0.28404475    -0.81000
H1073       H  0.26883430  0.40944732  0.20801724     0.18100
C1074       C  0.36169493  0.46708931  0.30816994    -0.25900
C1075       C  0.38195855  0.47575129  0.34570476     0.36200
C1076       C  0.40616662  0.47126475  0.34169919    -0.19900
C1077       C  0.40899994  0.45755156  0.30069822    -0.25100
C1078       C  0.38814131  0.44803014  0.26394174     0.27500
H1079       H  0.34361795  0.47129696  0.31049903     0.13300
N1080       N  0.37836000  0.48976067  0.38701649    -0.82400
H1081       H  0.42724275  0.45362923  0.29778781     0.18200
N1082       N  0.39079999  0.43299036  0.22321691    -0.81000
H1083       H  0.36117985  0.49398612  0.38193360     0.33800
H1084       H  0.37173737  0.47474288  0.41508828     0.38300
H1085       H  0.40956308  0.43109386  0.22599692     0.33700
H1086       H  0.37279341  0.41163834  0.22343974     0.30400
H1087       H  0.27897265  0.40290869  0.28485542     0.33700
H1088       H  0.30921446  0.40019964  0.29048968     0.30400
H1089       H  0.33657051  0.48064431  0.09541321     0.38300
H1090       H  0.36594401  0.47643310  0.09947144     0.33800
C1091       C  0.30537763  0.43239717  0.84840474    -0.20000
C1092       C  0.29772546  0.42228993  0.80106997     0.36300
C1093       C  0.32000610  0.42930690  0.76744471    -0.25900
C1094       C  0.34971850  0.44605467  0.77999109     0.02700
C1095       C  0.35747291  0.45542629  0.82771444     0.27500
C1096       C  0.33516793  0.44776439  0.86142534    -0.25100
N1097       N  0.26742340  0.40500757  0.78724415    -0.82400
H1098       H  0.31421358  0.42214015  0.73086580     0.13300
C1099       C  0.37171931  0.45514672  0.74148658     0.02700
N1100       N  0.38743467  0.47363148  0.84297550    -0.81000
H1101       H  0.34130154  0.45541542  0.89762578     0.18100
C1102       C  0.37286252  0.47510366  0.70734990    -0.25900
C1103       C  0.39268415  0.48392675  0.66916811     0.36200
C1104       C  0.41179544  0.47266664  0.66541205    -0.19900
C1105       C  0.41040856  0.45241673  0.69922588    -0.25100
C1106       C  0.39032370  0.44327252  0.73713131     0.27500
H1107       H  0.35817093  0.48378396  0.71060523     0.13300
N1108       N  0.39365090  0.50438625  0.63439588    -0.82400
H1109       H  0.42445598  0.44309510  0.69515714     0.18200
N1110       N  0.38786984  0.42114168  0.76978746    -0.81000
H1111       H  0.37793563  0.51033859  0.64205876     0.33800
H1112       H  0.41416933  0.52348309  0.63707631     0.38300
H1113       H  0.40222771  0.41377370  0.76010606     0.33700
H1114       H  0.39467716  0.43075671  0.80331998     0.30400
H1115       H  0.38970544  0.49330201  0.85566385     0.33700
H1116       H  0.40218113  0.47940398  0.81472770     0.30400
H1117       H  0.25835824  0.38522265  0.80600765     0.38300
H1118       H  0.26562688  0.39965190  0.75108040     0.33800
C1119       C  0.93270228  0.52290724  0.34140402    -0.20000
C1120       C  0.92898445  0.51057752  0.29538611     0.36300
C1121       C  0.91645234  0.51918349  0.25932087    -0.25900
C1122       C  0.90773840  0.53980534  0.26835907     0.02700
C1123       C  0.91178080  0.55237239  0.31397035     0.27500
C1124       C  0.92384888  0.54349431  0.35023076    -0.25100
N1125       N  0.93754827  0.48915926  0.28558480    -0.82400
H1126       H  0.91296781  0.50943031  0.22422935     0.13300
C1127       C  0.89279854  0.54691010  0.23066082     0.02700
N1128       N  0.90379879  0.57428472  0.32302107    -0.81000
H1129       H  0.92711394  0.55332726  0.38522592     0.18100
C1130       C  0.86376274  0.53986151  0.23832157    -0.25900
C1131       C  0.84842444  0.54607296  0.20397006     0.36200
C1132       C  0.86295118  0.56082269  0.16151813    -0.19900
C1133       C  0.89196473  0.56730657  0.15357851    -0.25100
C1134       C  0.90695252  0.56023956  0.18763778     0.27500
H1135       H  0.85282797  0.52884245  0.27101396     0.13300
N1136       N  0.81792783  0.53656124  0.21158483    -0.82400
H1137       H  0.90303968  0.57800968  0.12082261     0.18200
N1138       N  0.93643868  0.56655286  0.17885983    -0.81000
H1139       H  0.81089326  0.52649179  0.24484491     0.33800
H1140       H  0.80583969  0.52043142  0.18616807     0.38300
H1141       H  0.94360079  0.57613367  0.14531504     0.33700
H1142       H  0.95010729  0.58211636  0.20391248     0.30400
H1143       H  0.90816811  0.58133660  0.35841501     0.33700
H1144       H  0.91727179  0.59251828  0.30190028     0.30400
H1145       H  0.92419733  0.47054916  0.30604524     0.38300
H1146       H  0.93357043  0.48257563  0.24993781     0.33800
C1147       C  0.86840436  0.56124765  0.85405725    -0.20000
C1148       C  0.87629398  0.53967548  0.86199576     0.36300
C1149       C  0.89054829  0.53322361  0.82566056    -0.25900
C1150       C  0.89711828  0.54796159  0.78177928     0.02700
C1151       C  0.89019742  0.57026540  0.77462109     0.27500
C1152       C  0.87555114  0.57638438  0.81057985    -0.25100
N1153       N  0.86876286  0.52360652  0.90603578    -0.82400
H1154       H  0.89572228  0.51598109  0.83097843     0.13300
C1155       C  0.91010276  0.53906608  0.74282718     0.02700
N1156       N  0.89807612  0.58656444  0.73078953    -0.81000
H1157       H  0.86965744  0.59307561  0.80470529     0.18100
C1158       C  0.89560316  0.53057743  0.69881781    -0.25900
C1159       C  0.90722411  0.52249628  0.66056395     0.36200
C1160       C  0.93393022  0.52253691  0.66665347    -0.19900
C1161       C  0.94801889  0.53042716  0.71123374    -0.25100
C1162       C  0.93661554  0.53904889  0.74909500     0.27500
H1163       H  0.87499605  0.53020956  0.69436482     0.13300
N1164       N  0.89185569  0.51415915  0.61584678    -0.82400
H1165       H  0.96859626  0.53082390  0.71622783     0.18200
N1166       N  0.95224286  0.54851357  0.79346566    -0.81000
H1167       H  0.87309026  0.51612395  0.61709206     0.33800
H1168       H  0.88458069  0.49192585  0.61046158     0.38300
H1169       H  0.97137404  0.54719408  0.79229136     0.33700
H1170       H  0.95892822  0.57069327  0.79782279     0.30400
H1171       H  0.89139485  0.60216135  0.73113683     0.33700
H1172       H  0.92099779  0.59818879  0.72859233     0.30400
H1173       H  0.84586142  0.51108641  0.90773473     0.38300
H1174       H  0.87639246  0.50875050  0.90634775     0.33800
C1175       C  0.93772878  0.40986529  0.33442571    -0.20000
C1176       C  0.90925848  0.38500657  0.33744869     0.36300
C1177       C  0.89792408  0.36582837  0.29840950    -0.25900
C1178       C  0.91434804  0.37096089  0.25651254     0.02700
C1179       C  0.94261094  0.39587309  0.25326043     0.27500
C1180       C  0.95391958  0.41517539  0.29208276    -0.25100
N1181       N  0.89184597  0.37944515  0.37976755    -0.82400
H1182       H  0.87608268  0.34676829  0.30049799     0.13300
C1183       C  0.90170738  0.34972300  0.21664599     0.02700
N1184       N  0.95991876  0.40111197  0.21092916    -0.81000
H1185       H  0.97584740  0.43408494  0.28964923     0.18100
C1186       C  0.89659515  0.35891824  0.17260507    -0.25900
C1187       C  0.88296260  0.33890474  0.13498721     0.36200
C1188       C  0.87441202  0.30909246  0.14171143    -0.19900
C1189       C  0.88030808  0.30019422  0.18549523    -0.25100
C1190       C  0.89382858  0.32016610  0.22299699     0.27500
H1191       H  0.90245713  0.38163028  0.16813661     0.13300
N1192       N  0.87603795  0.34837957  0.09139355    -0.82400
H1193       H  0.87363153  0.27732411  0.19082906     0.18200
N1194       N  0.89904665  0.31048104  0.26789503    -0.81000
H1195       H  0.88178707  0.37042255  0.09366408     0.33800
H1196       H  0.88912232  0.34717606  0.06454125     0.38300
H1197       H  0.89171779  0.28802294  0.26694667     0.33700
H1198       H  0.92175739  0.32123966  0.27318963     0.30400
H1199       H  0.98023071  0.42039874  0.21426909     0.33700
H1200       H  0.96433497  0.38396280  0.20766754     0.30400
H1201       H  0.88724758  0.39646128  0.38327099     0.38300
H1202       H  0.87162958  0.36006816  0.37630923     0.33800
C1203       C  0.94094048  0.40280026  0.65924245    -0.20000
C1204       C  0.93330989  0.40846580  0.70466159     0.36300
C1205       C  0.92169186  0.38601307  0.73868169    -0.25900
C1206       C  0.91742701  0.35819066  0.72808298     0.02700
C1207       C  0.92539343  0.35259450  0.68318560     0.27500
C1208       C  0.93708747  0.37500013  0.64912600    -0.25100
N1209       N  0.93652441  0.43657052  0.71564115    -0.82400
H1210       H  0.91496269  0.38986602  0.77312928     0.13300
C1211       C  0.90219106  0.33453840  0.76311641     0.02700
N1212       N  0.92125383  0.32410956  0.67236831    -0.81000
H1213       H  0.94334070  0.37077342  0.61455732     0.18100
C1214       C  0.87511781  0.31033548  0.75064553    -0.25900
C1215       C  0.85812311  0.28877793  0.78419861     0.36200
C1216       C  0.86822833  0.29216283  0.83191084    -0.19900
C1217       C  0.89612110  0.31590649  0.84347636    -0.25100
C1218       C  0.91328381  0.33701318  0.80943166     0.27500
H1219       H  0.86687863  0.30868131  0.71473668     0.13300
N1220       N  0.83039474  0.26416877  0.77003013    -0.82400
H1221       H  0.90445540  0.31837779  0.87945438     0.18200
N1222       N  0.94167047  0.36124653  0.82179238    -0.81000
H1223       H  0.82557791  0.26630686  0.73464904     0.33800
H1224       H  0.83260054  0.24555867  0.77104392     0.38300
H1225       H  0.94653961  0.35990658  0.85747401     0.33700
H1226       H  0.95729738  0.35943050  0.80143879     0.30400
H1227       H  0.92808493  0.32356619  0.63761107     0.33700
H1228       H  0.93485168  0.32052546  0.69507867     0.30400
H1229       H  0.92212739  0.43938903  0.69365030     0.38300
H1230       H  0.93004913  0.43701247  0.75069638     0.33800
C1231       C  0.06487053  0.47389569  0.33739641    -0.20000
C1232       C  0.07114716  0.45091699  0.34175675     0.36300
C1233       C  0.08380800  0.44436233  0.30325995    -0.25900
C1234       C  0.09030126  0.46014154  0.26049802     0.02700
C1235       C  0.08385774  0.48290559  0.25582068     0.27500
C1236       C  0.07097766  0.48941151  0.29425023    -0.25100
N1237       N  0.06409830  0.43389554  0.38477784    -0.82400
H1238       H  0.08861700  0.42673430  0.30646846     0.13300
C1239       C  0.10510333  0.45318593  0.22204132     0.02700
N1240       N  0.09088140  0.49959984  0.21247142    -0.81000
H1241       H  0.06618228  0.50703445  0.29082620     0.18100
C1242       C  0.09148071  0.44330547  0.17756811    -0.25900
C1243       C  0.10454523  0.43508928  0.14145158     0.36200
C1244       C  0.13196134  0.43700312  0.15019749    -0.19900
C1245       C  0.14535180  0.44708906  0.19497482    -0.25100
C1246       C  0.13241068  0.45535555  0.23060322     0.27500
H1247       H  0.07033408  0.44149706  0.17140973     0.13300
N1248       N  0.08992131  0.42465986  0.09646418    -0.82400
H1249       H  0.16651189  0.44921321  0.20224627     0.18200
N1250       N  0.14702789  0.46619595  0.27554196    -0.81000
H1251       H  0.07042478  0.42531745  0.09566387     0.33800
H1252       H  0.08392865  0.40258376  0.09342483     0.38300
H1253       H  0.16690658  0.46628742  0.27634217     0.33700
H1254       H  0.15225031  0.48804916  0.27865901     0.30400
H1255       H  0.08468966  0.51552988  0.21481682     0.33700
H1256       H  0.11371926  0.51086049  0.20863294     0.30400
H1257       H  0.04123419  0.42232819  0.38820264     0.38300
H1258       H  0.07060361  0.41820515  0.38235652     0.33800
C1259       C  0.06471775  0.47033101  0.66062883    -0.20000
C1260       C  0.04934868  0.45601359  0.70261041     0.36300
C1261       C  0.06369194  0.44914450  0.73785380    -0.25900
C1262       C  0.09282347  0.45602394  0.73181781     0.02700
C1263       C  0.10816163  0.46999960  0.68990723     0.27500
C1264       C  0.09388167  0.47692136  0.65451765    -0.25100
N1265       N  0.01909658  0.44788940  0.70887849    -0.82400
H1266       H  0.05203385  0.43803614  0.77003885     0.13300
C1267       C  0.10695883  0.44846326  0.77000690     0.02700
N1268       N  0.13820942  0.47736898  0.68384379    -0.81000
H1269       H  0.10570710  0.48792382  0.62239538     0.18100
C1270       C  0.11630484  0.42837107  0.76062163    -0.25900
C1271       C  0.13002122  0.42082960  0.79608001     0.36200
C1272       C  0.13434059  0.43373330  0.84157634    -0.19900
C1273       C  0.12418698  0.45317498  0.85125680    -0.25100
C1274       C  0.11079991  0.46095804  0.81564407     0.27500
H1275       H  0.11281758  0.41857097  0.72556101     0.13300
N1276       N  0.13943670  0.40008103  0.78625607    -0.82400
H1277       H  0.12787599  0.46329864  0.88609020     0.18200
N1278       N  0.10167277  0.48196129  0.82518576    -0.81000
H1279       H  0.13465237  0.39273033  0.75104452     0.33800
H1280       H  0.12714570  0.38176851  0.80793353     0.38300
H1281       H  0.10604488  0.48902434  0.86057753     0.33700
H1282       H  0.11444567  0.50039571  0.80400822     0.30400
H1283       H  0.14627301  0.48747231  0.65088391     0.33700
H1284       H  0.15068656  0.49284830  0.70987546     0.30400
H1285       H  0.00685274  0.43209213  0.68312001     0.38300
H1286       H  0.01125067  0.43785746  0.74195621     0.33800
C1287       C  0.13145438  0.69667414  0.15485313    -0.20000
C1288       C  0.11887605  0.66622982  0.14669639     0.36300
C1289       C  0.10443495  0.64647224  0.18418721    -0.25900
C1290       C  0.10231790  0.65642369  0.22949765     0.02700
C1291       C  0.11454558  0.68671633  0.23760511     0.27500
C1292       C  0.12911095  0.70653328  0.20028291    -0.25100
N1293       N  0.12224499  0.65553456  0.10140958    -0.82400
H1294       H  0.09531643  0.62316504  0.17840392     0.13300
C1295       C  0.08834512  0.63483996  0.26856063     0.02700
N1296       N  0.11228607  0.69718584  0.28378575    -0.81000
H1297       H  0.13886208  0.72985675  0.20675927     0.18100
C1298       C  0.10531807  0.63618524  0.30799476    -0.25900
C1299       C  0.09335120  0.61524304  0.34464880     0.36200
C1300       C  0.06361568  0.59283815  0.34214033    -0.19900
C1301       C  0.04670847  0.59146060  0.30244905    -0.25100
C1302       C  0.05875297  0.61229850  0.26569895     0.27500
H1303       H  0.12821036  0.65324846  0.30951255     0.13300
N1304       N  0.11147586  0.61614208  0.38360317    -0.82400
H1305       H  0.02385285  0.57432775  0.30049388     0.18200
N1306       N  0.04108547  0.61079032  0.22559497    -0.81000
H1307       H  0.13276645  0.63403376  0.38012852     0.33800
H1308       H  0.11323110  0.59729297  0.38147916     0.38300
H1309       H  0.01980485  0.59284077  0.22881112     0.33700
H1310       H  0.03919608  0.62958796  0.22620434     0.30400
H1311       H  0.12262642  0.72008124  0.28394666     0.33700
H1312       H  0.09002705  0.68930929  0.29046059     0.30400
H1313       H  0.10894826  0.65837812  0.07694638     0.38300
H1314       H  0.11426299  0.63295682  0.10292585     0.33800
C1315       C  0.12821032  0.69828238  0.84471212    -0.20000
C1316       C  0.13488369  0.70386091  0.79558388     0.36300
C1317       C  0.11913764  0.68174692  0.76232522    -0.25900
C1318       C  0.09619276  0.65426019  0.77639156     0.02700
C1319       C  0.08797906  0.64904231  0.82471908     0.27500
C1320       C  0.10417424  0.67104048  0.85849388    -0.25100
N1321       N  0.15769528  0.73182483  0.77887816    -0.82400
H1322       H  0.12532920  0.68597096  0.72510302     0.13300
C1323       C  0.08186504  0.63104488  0.73990170     0.02700
N1324       N  0.06339332  0.62141117  0.83919830    -0.81000
H1325       H  0.09825230  0.66659774  0.89575722     0.18100
C1326       C  0.08201977  0.60466483  0.74532662    -0.25900
C1327       C  0.07035016  0.58287807  0.70992653     0.36200
C1328       C  0.05897166  0.58810490  0.66786689    -0.19900
C1329       C  0.05903349  0.61456449  0.66252477    -0.25100
C1330       C  0.07000172  0.63592632  0.69829854     0.27500
H1331       H  0.09173633  0.60131873  0.77697556     0.13300
N1332       N  0.07132401  0.55628132  0.71564139    -0.82400
H1333       H  0.04997489  0.61837179  0.63048297     0.18200
N1334       N  0.06917774  0.66259053  0.69258746    -0.81000
H1335       H  0.08246470  0.55706721  0.74691586     0.33800
H1336       H  0.04978534  0.53907753  0.72024438     0.38300
H1337       H  0.06002585  0.66288010  0.65970408     0.33700
H1338       H  0.05518220  0.66281710  0.71876323     0.30400
H1339       H  0.06031477  0.62098671  0.87603447     0.33700
H1340       H  0.04457753  0.61960992  0.82345726     0.30400
H1341       H  0.17313691  0.72870898  0.76039069     0.38300
H1342       H  0.14843863  0.74008136  0.75495707     0.33800
C1343       C  0.40699343  0.94431725  0.33511299    -0.20000
C1344       C  0.37765266  0.93773446  0.34095626     0.36300
C1345       C  0.35776046  0.92487479  0.30318723    -0.25900
C1346       C  0.36671656  0.91892460  0.25969089     0.02700
C1347       C  0.39625432  0.92686002  0.25286853     0.27500
C1348       C  0.41618864  0.93979134  0.29053203    -0.25100
N1349       N  0.36824270  0.94440006  0.38488151    -0.82400
H1350       H  0.33502847  0.91901578  0.30779675     0.13300
C1351       C  0.34434706  0.90199704  0.22322852     0.02700
N1352       N  0.40561830  0.92085148  0.20830683    -0.81000
H1353       H  0.43879198  0.94546410  0.28549363     0.18100
C1354       C  0.34444114  0.91515649  0.17986645    -0.25900
C1355       C  0.32337165  0.89928603  0.14462715     0.36200
C1356       C  0.30202786  0.86954777  0.15310369    -0.19900
C1357       C  0.30218943  0.85660943  0.19678996    -0.25100
C1358       C  0.32324285  0.87246152  0.23170367     0.27500
H1359       H  0.36089445  0.93790722  0.17373805     0.13300
N1360       N  0.32351073  0.91333622  0.10067530    -0.82400
H1361       H  0.28626893  0.83375038  0.20340051     0.18200
N1362       N  0.32366926  0.85859281  0.27554420    -0.81000
H1363       H  0.34086247  0.93503742  0.10003283     0.33800
H1364       H  0.30415512  0.91424348  0.09936989     0.38300
H1365       H  0.30661414  0.83675744  0.27632570     0.33700
H1366       H  0.34326488  0.85812751  0.27647083     0.30400
H1367       H  0.42810375  0.92817191  0.20907429     0.33700
H1368       H  0.39486751  0.89807193  0.20417338     0.30400
H1369       H  0.37978973  0.96721112  0.38881995     0.38300
H1370       H  0.34598807  0.93800343  0.38332722     0.33800
C1371       C  0.40665589  0.93708099  0.66146750    -0.20000
C1372       C  0.41397752  0.92735360  0.70342820     0.36300
C1373       C  0.39334820  0.91521209  0.74027380    -0.25900
C1374       C  0.36580849  0.91280281  0.73604117     0.02700
C1375       C  0.35859744  0.92305563  0.69492229     0.27500
C1376       C  0.37909717  0.93497098  0.65771793    -0.25100
N1377       N  0.44197487  0.92911413  0.70796019    -0.82400
H1378       H  0.39843827  0.90695370  0.77203469     0.13300
C1379       C  0.34381700  0.89690053  0.77317045     0.02700
N1380       N  0.33059434  0.92140292  0.69134716    -0.81000
H1381       H  0.37371780  0.94296200  0.62595712     0.18100
C1382       C  0.34004413  0.91238652  0.81036811    -0.25900
C1383       C  0.31944294  0.89739458  0.84663414     0.36200
C1384       C  0.30263376  0.86646518  0.84525095    -0.19900
C1385       C  0.30673246  0.85118385  0.80790882    -0.25100
C1386       C  0.32719028  0.86611594  0.77182967     0.27500
H1387       H  0.35313973  0.93612103  0.81094049     0.13300
N1388       N  0.31518290  0.91337664  0.88418501    -0.82400
H1389       H  0.29411321  0.82742289  0.80716950     0.18200
N1390       N  0.33151852  0.85021469  0.73412021    -0.81000
H1391       H  0.32942411  0.93592552  0.88002228     0.33800
H1392       H  0.29387224  0.90981033  0.88081601     0.38300
H1393       H  0.31789928  0.82761098  0.73886395     0.33700
H1394       H  0.32501336  0.85551408  0.70226600     0.30400
H1395       H  0.32895666  0.93038814  0.65910796     0.33700
H1396       H  0.31436080  0.89923650  0.69077026     0.30400
H1397       H  0.44270227  0.91504959  0.68247094     0.38300
H1398       H  0.44391478  0.92132492  0.74121234     0.33800
C1399       C  0.56239060  0.86988399  0.14902653    -0.20000
C1400       C  0.57635455  0.90086344  0.14886103     0.36300
C1401       C  0.56938197  0.91503000  0.18474419    -0.25900
C1402       C  0.54864031  0.89880300  0.21999326     0.02700
C1403       C  0.53433138  0.86800820  0.21963321     0.27500
C1404       C  0.54130847  0.85388481  0.18414513    -0.25100
N1405       N  0.59823974  0.91783386  0.11369603    -0.82400
H1406       H  0.58019886  0.93876191  0.18545624     0.13300
C1407       C  0.54208632  0.91406178  0.25778193     0.02700
N1408       N  0.51261955  0.85122786  0.25519049    -0.81000
H1409       H  0.53014340  0.83012737  0.18386952     0.18100
C1410       C  0.51911002  0.91976547  0.25115274    -0.25900
C1411       C  0.51058666  0.93199364  0.28790261     0.36200
C1412       C  0.52551039  0.93863381  0.33203992    -0.19900
C1413       C  0.54875855  0.93314190  0.33819329    -0.25100
C1414       C  0.55727547  0.92100926  0.30138399     0.27500
H1415       H  0.50743462  0.91406302  0.21752964     0.13300
N1416       N  0.48637581  0.93689051  0.28098573    -0.82400
H1417       H  0.56051047  0.93859292  0.37173258     0.18200
N1418       N  0.58146837  0.91600142  0.30782961    -0.81000
H1419       H  0.47797988  0.93099646  0.24647355     0.33800
H1420       H  0.46959654  0.92284968  0.30413184     0.38300
H1421       H  0.59068197  0.92288766  0.34166250     0.33700
H1422       H  0.57326196  0.89339713  0.30645153     0.30400
H1423       H  0.50367829  0.82875594  0.24924491     0.33700
H1424       H  0.52319543  0.85569182  0.28816359     0.30400
H1425       H  0.58751732  0.91450261  0.08103285     0.38300
H1426       H  0.60785112  0.94024414  0.12100111     0.33800
C1427       C  0.56587883  0.86763764  0.84263893    -0.20000
C1428       C  0.56506616  0.89364742  0.85231221     0.36300
C1429       C  0.55869643  0.90746835  0.81519309    -0.25900
C1430       C  0.55284874  0.89587927  0.76898722     0.02700
C1431       C  0.55380328  0.87025327  0.75907443     0.27500
C1432       C  0.56028828  0.85646268  0.79581579    -0.25100
N1433       N  0.57072704  0.90611845  0.89934731    -0.82400
H1434       H  0.55797940  0.92728523  0.82234370     0.13300
C1435       C  0.54484173  0.91023596  0.73139794     0.02700
N1436       N  0.54788772  0.85817442  0.71174586    -0.81000
H1437       H  0.56060974  0.83657382  0.78759150     0.18100
C1438       C  0.56258065  0.92128538  0.69079222    -0.25900
C1439       C  0.55470085  0.93341181  0.65304984     0.36200
C1440       C  0.52884388  0.93511154  0.65670601    -0.19900
C1441       C  0.51165429  0.92481833  0.69808146    -0.25100
C1442       C  0.51904370  0.91185135  0.73505953     0.27500
H1443       H  0.58247104  0.92008353  0.68837804     0.13300
N1444       N  0.57338905  0.94486441  0.61195867    -0.82400
H1445       H  0.49201909  0.92631880  0.70109589     0.18200
N1446       N  0.50016467  0.89974141  0.77582267    -0.81000
H1447       H  0.59281541  0.94443762  0.61711347     0.33800
H1448       H  0.56261288  0.93057426  0.58366184     0.38300
H1449       H  0.48207114  0.90274849  0.77300414     0.33700
H1450       H  0.49186090  0.87708640  0.77562602     0.30400
H1451       H  0.54973040  0.83936356  0.71023936     0.33700
H1452       H  0.52604438  0.85154187  0.70372988     0.30400
H1453       H  0.55273285  0.89227212  0.92066170     0.38300
H1454       H  0.57163252  0.92637650  0.89913774     0.33800
C1455       C  0.70257581  0.13878421  0.16359623    -0.20000
C1456       C  0.70291979  0.15197754  0.20799627     0.36300
C1457       C  0.68181327  0.13580435  0.24250649    -0.25900
C1458       C  0.66018634  0.10664800  0.23439352     0.02700
C1459       C  0.65983793  0.09304873  0.19112529     0.27500
C1460       C  0.68084045  0.10929334  0.15597577    -0.25100
N1461       N  0.72353978  0.18201003  0.21883265    -0.82400
H1462       H  0.68191728  0.14631973  0.27574452     0.13300
C1463       C  0.63723618  0.09114362  0.27084606     0.02700
N1464       N  0.63806764  0.06283519  0.18315657    -0.81000
H1465       H  0.68016187  0.09882925  0.12247062     0.18100
C1466       C  0.60817649  0.08315653  0.26020665    -0.25900
C1467       C  0.58597365  0.07013954  0.29474299     0.36200
C1468       C  0.59304263  0.06453567  0.34067062    -0.19900
C1469       C  0.62220468  0.07231104  0.35090284    -0.25100
C1470       C  0.64437868  0.08563906  0.31649263     0.27500
H1471       H  0.60301523  0.08787874  0.22513592     0.13300
N1472       N  0.55657694  0.06336408  0.28362974    -0.82400
H1473       H  0.62773703  0.06779883  0.38583703     0.18200
N1474       N  0.67413376  0.09369960  0.32764065    -0.81000
H1475       H  0.55514641  0.06865856  0.24823057     0.33800
H1476       H  0.55187508  0.07681843  0.30474078     0.38300
H1477       H  0.67575802  0.08835078  0.36292828     0.33700
H1478       H  0.67976112  0.08108787  0.30616155     0.30400
H1479       H  0.64073475  0.05604941  0.14947919     0.33700
H1480       H  0.64170201  0.05023058  0.20798378     0.30400
H1481       H  0.74468150  0.18497358  0.21964318     0.38300
H1482       H  0.72213277  0.19535442  0.19269961     0.33800
C1483       C  0.59039611  0.05804785  0.66573472    -0.20000
C1484       C  0.61264713  0.08786183  0.66653143     0.36300
C1485       C  0.63205082  0.09861555  0.70536975    -0.25900
C1486       C  0.62966207  0.08029360  0.74341029     0.02700
C1487       C  0.60756404  0.05050957  0.74267686     0.27500
C1488       C  0.58794282  0.03974400  0.70403102    -0.25100
N1489       N  0.61520207  0.10719091  0.62838358    -0.82400
H1490       H  0.64908903  0.12152023  0.70626136     0.13300
C1491       C  0.65095321  0.09299162  0.78318402     0.02700
N1492       N  0.60544097  0.03130388  0.78071596    -0.81000
H1493       H  0.57101961  0.01678878  0.70327511     0.18100
C1494       C  0.64154991  0.09679987  0.82800305    -0.25900
C1495       C  0.66197777  0.11286606  0.86413576     0.36200
C1496       C  0.69232995  0.12470073  0.85533523    -0.19900
C1497       C  0.70140018  0.11969473  0.81101860    -0.25100
C1498       C  0.68105004  0.10395236  0.77497288     0.27500
H1499       H  0.61836133  0.08854304  0.83388035     0.13300
N1500       N  0.65212215  0.11856571  0.90847077    -0.82400
H1501       H  0.72460248  0.12861689  0.80415759     0.18200
N1502       N  0.69080851  0.09959840  0.72949461    -0.81000
H1503       H  0.62920613  0.10824424  0.90921694     0.33800
H1504       H  0.65993077  0.14110505  0.91008633     0.38300
H1505       H  0.71366662  0.10927805  0.72891916     0.33700
H1506       H  0.68220354  0.07704604  0.72510842     0.30400
H1507       H  0.58797336  0.01005007  0.77472746     0.33700
H1508       H  0.62457925  0.02998183  0.78020145     0.30400
H1509       H  0.59625242  0.10885157  0.62862216     0.38300
H1510       H  0.63288277  0.12832995  0.63430607     0.33800
C1511       C  0.43302608  0.12956194  0.15049041    -0.20000
C1512       C  0.45386491  0.12047984  0.14380166     0.36300
C1513       C  0.46088556  0.10796205  0.18209292    -0.25900
C1514       C  0.44743879  0.10416066  0.22666394     0.02700
C1515       C  0.42623275  0.11259932  0.23320599     0.27500
C1516       C  0.41932564  0.12532477  0.19511795    -0.25100
N1517       N  0.46909234  0.12554103  0.09919878    -0.82400
H1518       H  0.47728609  0.10152752  0.17746208     0.13300
C1519       C  0.45570833  0.09113990  0.26614068     0.02700
N1520       N  0.41211433  0.10852558  0.27866851    -0.81000
H1521       H  0.40353544  0.13248151  0.20050138     0.18100
C1522       C  0.46878884  0.10770991  0.30729792    -0.25900
C1523       C  0.47655122  0.09585547  0.34568903     0.36200
C1524       C  0.47182672  0.06703481  0.34199153    -0.19900
C1525       C  0.45883022  0.05064156  0.30050126    -0.25100
C1526       C  0.45044591  0.06227797  0.26281998     0.27500
H1527       H  0.47284424  0.12995757  0.30943063     0.13300
N1528       N  0.48992880  0.11330220  0.38748567    -0.82400
H1529       H  0.45467179  0.02837271  0.29779571     0.18200
N1530       N  0.43634485  0.04485268  0.22131563    -0.81000
H1531       H  0.49421638  0.13474089  0.38242310     0.33800
H1532       H  0.47451563  0.10461235  0.41501856     0.38300
H1533       H  0.43407933  0.02406150  0.22440617     0.33700
H1534       H  0.41509305  0.04163067  0.21984861     0.30400
H1535       H  0.39718064  0.11605560  0.27770612     0.33700
H1536       H  0.39988847  0.08597422  0.28526970     0.30400
H1537       H  0.45396737  0.11127154  0.07416933     0.38300
H1538       H  0.48543729  0.11990259  0.10161500     0.33800
C1539       C  0.46730687  0.05747719  0.66519734    -0.20000
C1540       C  0.48433635  0.06882214  0.70683088     0.36300
C1541       C  0.47486858  0.08085050  0.74246098    -0.25900
C1542       C  0.44875311  0.08156204  0.73720609     0.02700
C1543       C  0.43139216  0.06948657  0.69611968     0.27500
C1544       C  0.44105967  0.05790309  0.66024191    -0.25100
N1545       N  0.51153163  0.06891809  0.71207916    -0.82400
H1546       H  0.48831635  0.09051184  0.77381870     0.13300
C1547       C  0.44093023  0.09690477  0.77332600     0.02700
N1548       N  0.40403062  0.06905844  0.69111292    -0.81000
H1549       H  0.42788370  0.04884056  0.62842942     0.18100
C1550       C  0.43748298  0.12036659  0.75877116    -0.25900
C1551       C  0.43096163  0.13631129  0.79155040     0.36200
C1552       C  0.42910979  0.12940680  0.84077811    -0.19900
C1553       C  0.43203506  0.10538391  0.85497585    -0.25100
C1554       C  0.43761940  0.08891261  0.82172133     0.27500
H1555       H  0.44004814  0.12636521  0.72143071     0.13300
N1556       N  0.42645767  0.15950511  0.77471571    -0.82400
H1557       H  0.43032382  0.09952864  0.89227602     0.18200
N1558       N  0.44004146  0.06418290  0.83685893    -0.81000
H1559       H  0.42975832  0.16231708  0.73792944     0.33800
H1560       H  0.40439205  0.15293517  0.78057443     0.38300
H1561       H  0.43710577  0.06125561  0.87368916     0.33700
H1562       H  0.42283618  0.04544326  0.82109289     0.30400
H1563       H  0.39401668  0.05954311  0.65868507     0.33700
H1564       H  0.38996217  0.05553512  0.71793473     0.30400
H1565       H  0.52594205  0.08267312  0.68577895     0.38300
H1566       H  0.52129713  0.07798593  0.74485408     0.33800
loop_ 
_geom_bond_atom_site_label_1 
_geom_bond_atom_site_label_2 
_geom_bond_distance 
_geom_bond_site_symmetry_2 
_ccdc_geom_bond_type 
O1          Zr13   2.434       .  S
O1            C3   1.287       .  A
O2          Zr39   2.409   1_545  S
O2            C3   1.283       .  A
C3         C1539   1.470       .  S
O4          Zr16   2.449       .  S
O4            C6   1.290       .  A
O5          Zr40   2.410   1_565  S
O5            C6   1.284       .  A
C6         C1343   1.480       .  S
O7          Zr16   2.449       .  S
O7            C9   1.290       .  A
O8          Zr39   2.398       .  S
O8            C9   1.282       .  A
C9         C1371   1.474       .  S
O10         Zr13   2.443       .  S
O10          C12   1.287       .  A
O11         Zr40   2.414       .  S
O11          C12   1.285       .  A
C12        C1524   1.482       .  S
Zr13         O14   2.433       .  S
Zr13         O15   2.434       .  S
Zr13         O19   2.373       .  S
Zr13         O20   2.366       .  S
Zr13         O43   2.368       .  S
Zr13         O45   2.370       .  S
O14          H57   0.990       .  S
O15          H56   0.990       .  S
O15          H60   0.990       .  S
Zr16         O17   2.437       .  S
Zr16         O18   2.435       .  S
Zr16         O20   2.370   1_565  S
Zr16         O19   2.368   1_565  S
Zr16         O44   2.375       .  S
Zr16         O46   2.377       .  S
O17          H58   0.990       .  S
O17          H61   0.990       .  S
O18          H51   0.990       .  S
O19         Zr39   2.377   1_545  S
O20         Zr40   2.379       .  S
O20          H47   0.965       .  S
O21         Zr33   2.436       .  S
O21          C23   1.288       .  A
O22         Zr40   2.414       .  S
O22          C23   1.285       .  A
C23        C1468   1.480       .  S
O24         Zr36   2.443       .  S
O24          C26   1.288       .  A
O25         Zr39   2.412       .  S
O25          C26   1.284       .  A
C26        C1440   1.478       .  S
O27         Zr36   2.446       .  S
O27          C29   1.289       .  A
O28         Zr40   2.412   1_565  S
O28          C29   1.284       .  A
C29        C1412   1.479       .  S
O30         Zr33   2.451       .  S
O30          C32   1.290       .  A
O31         Zr39   2.412   1_545  S
O31          C32   1.284       .  A
C32        C1483   1.481       .  S
Zr33         O34   2.436       .  S
Zr33         O35   2.434       .  S
Zr33         O41   2.374   1_545  S
Zr33         O42   2.369   1_545  S
Zr33         O45   2.367       .  S
Zr33         O43   2.378       .  S
O34          H54   0.990       .  S
O34          H59   0.990       .  S
O35          H55   0.990       .  S
Zr36         O37   2.432       .  S
Zr36         O38   2.433       .  S
Zr36         O42   2.372       .  S
Zr36         O41   2.368       .  S
Zr36         O46   2.373       .  S
Zr36         O44   2.371       .  S
O37          H53   0.990       .  S
O38          H52   0.990       .  S
O38          H62   0.990       .  S
Zr39         O42   2.370       .  S
Zr39         O44   2.382       .  S
Zr39         O45   2.379   1_565  S
Zr40         O41   2.381   1_545  S
Zr40         O43   2.379       .  S
Zr40         O46   2.380   1_545  S
O41          H49   0.966       .  S
O44          H48   0.966       .  S
O45          H50   0.966       .  S
O63         Zr75   2.443       .  S
O63          C65   1.289       .  A
O64        Zr101   2.408   1_455  S
O64          C65   1.282       .  A
C65        C1328   1.473       .  S
O66         Zr78   2.441       .  S
O66          C68   1.289       .  A
O67        Zr102   2.402   1_655  S
O67          C68   1.282       .  A
C68        C1119   1.475       .  S
O69         Zr78   2.438       .  S
O69          C71   1.287       .  A
O70        Zr101   2.420       .  S
O70          C71   1.286       .  A
C71        C1160   1.488       .  S
O72         Zr75   2.453       .  S
O72          C74   1.290       .  A
O73        Zr102   2.410       .  S
O73          C74   1.284       .  A
C74        C1300   1.481       .  S
Zr75         O76   2.432       .  S
Zr75         O77   2.433       .  S
Zr75         O81   2.372   1_455  S
Zr75         O82   2.369   1_455  S
Zr75        O105   2.371       .  S
Zr75        O107   2.369       .  S
O76         H119   0.990       .  S
O77         H118   0.990       .  S
O77         H122   0.990       .  S
Zr78         O79   2.436       .  S
Zr78         O80   2.436       .  S
Zr78         O82   2.374       .  S
Zr78         O81   2.371       .  S
Zr78        O106   2.371       .  S
Zr78        O108   2.371       .  S
O79         H120   0.990       .  S
O79         H123   0.990       .  S
O80         H113   0.990       .  S
O81        Zr101   2.372       .  S
O82        Zr102   2.380   1_655  S
O82         H109   0.965       .  S
O83         Zr95   2.437       .  S
O83          C85   1.287       .  A
O84        Zr102   2.419       .  S
O84          C85   1.285       .  A
C85        C1231   1.479       .  S
O86         Zr98   2.435       .  S
O86          C88   1.288       .  A
O87        Zr101   2.402       .  S
O87          C88   1.282       .  A
C88        C1203   1.472       .  S
O89         Zr98   2.444       .  S
O89          C91   1.289       .  A
O90        Zr102   2.405   1_655  S
O90          C91   1.284       .  A
C91        C1175   1.481       .  S
O92         Zr95   2.430       .  S
O92          C94   1.286       .  A
O93        Zr101   2.412   1_455  S
O93          C94   1.284       .  A
C94        C1259   1.474       .  S
Zr95         O96   2.435       .  S
Zr95         O97   2.435       .  S
Zr95        O103   2.367       .  S
Zr95        O104   2.370       .  S
Zr95        O107   2.371       .  S
Zr95        O105   2.370       .  S
O96         H116   0.990       .  S
O96         H121   0.990       .  S
O97         H117   0.990       .  S
Zr98         O99   2.433       .  S
Zr98        O100   2.437       .  S
Zr98        O104   2.370   1_655  S
Zr98        O103   2.366   1_655  S
Zr98        O108   2.368       .  S
Zr98        O106   2.374       .  S
O99         H115   0.990       .  S
O100        H114   0.990       .  S
O100        H124   0.990       .  S
Zr101       O104   2.372   1_655  S
Zr101       O106   2.383       .  S
Zr101       O107   2.380   1_655  S
Zr102       O103   2.374       .  S
Zr102       O105   2.373       .  S
Zr102       O108   2.380   1_455  S
O103        H111   0.965       .  S
O106        H110   0.966       .  S
O107        H112   0.966       .  S
O125       Zr137   2.448       .  S
O125        C127   1.290       .  A
O126       Zr163   2.426       .  S
O126        C127   1.286       .  A
C127       C1035   1.494       .  S
O128       Zr140   2.442       .  S
O128        C130   1.287       .  A
O129       Zr164   2.410       .  S
O129        C130   1.284       .  A
C130       C1076   1.481       .  S
O131       Zr140   2.444       .  S
O131        C133   1.288       .  A
O132       Zr163   2.412       .  S
O132        C133   1.284       .  A
C133       C1104   1.471       .  S
O134       Zr137   2.436       .  S
O134        C136   1.286       .  A
O135       Zr164   2.414       .  S
O135        C136   1.284       .  A
C136       C1020   1.465       .  S
Zr137       O138   2.433       .  S
Zr137       O139   2.436       .  S
Zr137       O143   2.377       .  S
Zr137       O144   2.377       .  S
Zr137       O167   2.369       .  S
Zr137       O169   2.364       .  S
O138        H181   0.990       .  S
O139        H180   0.990       .  S
O139        H184   0.990       .  S
Zr140       O141   2.437       .  S
Zr140       O142   2.434       .  S
Zr140       O144   2.368       .  S
Zr140       O143   2.375       .  S
Zr140       O168   2.372       .  S
Zr140       O170   2.374       .  S
O141        H182   0.990       .  S
O141        H185   0.990       .  S
O142        H175   0.990       .  S
O143       Zr163   2.378       .  S
O144       Zr164   2.381       .  S
O144        H171   0.965       .  S
O145       Zr157   2.444       .  S
O145        C147   1.289       .  A
O146       Zr164   2.405       .  S
O146        C147   1.282       .  A
C147        C951   1.475       .  S
O148       Zr160   2.452       .  S
O148        C150   1.291       .  A
O149       Zr163   2.406       .  S
O149        C150   1.282       .  A
C150        C936   1.491       .  S
O151       Zr160   2.453       .  S
O151        C153   1.291       .  A
O152       Zr164   2.414       .  S
O152        C153   1.283       .  A
C153        C908   1.496       .  S
O154       Zr157   2.449       .  S
O154        C156   1.290       .  A
O155       Zr163   2.407       .  S
O155        C156   1.284       .  A
C156        C979   1.480       .  S
Zr157       O158   2.435       .  S
Zr157       O159   2.434       .  S
Zr157       O165   2.373       .  S
Zr157       O166   2.372       .  S
Zr157       O169   2.370       .  S
Zr157       O167   2.367       .  S
O158        H178   0.990       .  S
O158        H183   0.990       .  S
O159        H179   0.990       .  S
Zr160       O161   2.434       .  S
Zr160       O162   2.437       .  S
Zr160       O166   2.375       .  S
Zr160       O165   2.370       .  S
Zr160       O170   2.374       .  S
Zr160       O168   2.370       .  S
O161        H177   0.990       .  S
O162        H176   0.991       .  S
O162        H186   0.990       .  S
Zr163       O166   2.379       .  S
Zr163       O168   2.379       .  S
Zr163       O169   2.377       .  S
Zr164       O165   2.381       .  S
Zr164       O167   2.371       .  S
Zr164       O170   2.372       .  S
O165        H173   0.966       .  S
O168        H172   0.965       .  S
O169        H174   0.965       .  S
O187       Zr199   2.430       .  S
O187        C189   1.286       .  A
O188       Zr225   2.432       .  S
O188        C189   1.287       .  A
C189        C839   1.487       .  S
O190       Zr202   2.438       .  S
O190        C192   1.288       .  A
O191       Zr226   2.419       .  S
O191        C192   1.284       .  A
C192        C992   1.488       .  S
O193       Zr202   2.435       .  S
O193        C195   1.287       .  A
O194       Zr225   2.429   1_556  S
O194        C195   1.287       .  A
C195       C1147   1.477       .  S
O196       Zr199   2.427       .  S
O196        C198   1.286       .  A
O197       Zr226   2.434   1_554  S
O197        C198   1.287       .  A
C198        C867   1.481       .  S
Zr199       O200   2.434   1_554  S
Zr199       O201   2.437       .  S
Zr199       O205   2.363   1_554  S
Zr199       O206   2.361   1_554  S
Zr199       O229   2.367       .  S
Zr199       O231   2.359       .  S
O200        H243   0.990       .  S
O201        H242   0.990       .  S
O201        H246   0.990       .  S
Zr202       O203   2.437       .  S
Zr202       O204   2.433       .  S
Zr202       O206   2.374       .  S
Zr202       O205   2.368       .  S
Zr202       O230   2.371       .  S
Zr202       O232   2.371       .  S
O203        H244   0.990       .  S
O203        H247   0.990       .  S
O204        H237   0.990       .  S
O205       Zr225   2.374   1_556  S
O206       Zr226   2.380       .  S
O206        H233   0.966       .  S
O207       Zr219   2.431       .  S
O207        C209   1.286       .  A
O208       Zr226   2.409   1_554  S
O208        C209   1.284       .  A
C209        C964   1.475       .  S
O210       Zr222   2.468   1_554  S
O210        C212   1.293       .  A
O211       Zr225   2.418       .  S
O211        C212   1.286       .  A
C212        C783   1.486       .  S
O213       Zr222   2.481       .  S
O213        C215   1.295       .  A
O214       Zr226   2.418       .  S
O214        C215   1.287       .  A
C215        C811   1.500   1_556  S
O216       Zr219   2.433       .  S
O216        C218   1.286       .  A
O217       Zr225   2.425       .  S
O217        C218   1.287       .  A
C218       C1132   1.483       .  S
Zr219       O220   2.437       .  S
Zr219       O221   2.434       .  S
Zr219       O227   2.367       .  S
Zr219       O228   2.370       .  S
Zr219       O231   2.372       .  S
Zr219       O229   2.369       .  S
O220        H240   0.990       .  S
O220        H245   0.990       .  S
O221        H241   0.990       .  S
Zr222       O223   2.435   1_556  S
Zr222       O224   2.435       .  S
Zr222       O228   2.388   1_556  S
Zr222       O227   2.379   1_556  S
Zr222       O232   2.381       .  S
Zr222       O230   2.382       .  S
O223        H239   0.990       .  S
O224        H238   0.990       .  S
O224        H248   0.990       .  S
Zr225       O228   2.392       .  S
Zr225       O230   2.391   1_554  S
Zr225       O231   2.382       .  S
Zr226       O227   2.392   1_556  S
Zr226       O229   2.378   1_556  S
Zr226       O232   2.384       .  S
O227        H235   0.966       .  S
O230        H234   0.966       .  S
O231        H236   0.965       .  S
O249       Zr261   2.436       .  S
O249        C251   1.288       .  A
O250       Zr287   2.427       .  S
O250        C251   1.287   1_554  A
C251        C755   1.481       .  S
O252       Zr264   2.423       .  S
O252        C254   1.284       .  A
O253       Zr288   2.415       .  S
O253        C254   1.286       .  A
C254       C1216   1.482       .  S
O255       Zr264   2.440       .  S
O255        C257   1.288       .  A
O256       Zr287   2.432   1_556  S
O256        C257   1.287       .  A
C257       C1496   1.485       .  S
O258       Zr261   2.435   1_554  S
O258        C260   1.287   1_554  A
O259       Zr288   2.428       .  S
O259        C260   1.286       .  A
C260        C852   1.476   1_556  S
Zr261       O262   2.435       .  S
Zr261       O263   2.432   1_556  S
Zr261       O267   2.364       .  S
Zr261       O268   2.364       .  S
Zr261       O291   2.365   1_556  S
Zr261       O293   2.366   1_556  S
O262        H305   0.990       .  S
O263        H304   0.990       .  S
O263        H308   0.990       .  S
Zr264       O265   2.437       .  S
Zr264       O266   2.434       .  S
Zr264       O268   2.378       .  S
Zr264       O267   2.359       .  S
Zr264       O292   2.367       .  S
Zr264       O294   2.375       .  S
O265        H306   0.990       .  S
O265        H309   0.990       .  S
O266        H299   0.990       .  S
O267       Zr287   2.376   1_556  S
O268       Zr288   2.388       .  S
O268        H295   0.966       .  S
O269       Zr281   2.434       .  S
O269        C271   1.287       .  A
O270       Zr288   2.437   1_554  S
O270        C271   1.288       .  A
C271       C1188   1.483       .  S
O272       Zr284   2.457   1_554  S
O272        C274   1.292       .  A
O273       Zr287   2.415       .  S
O273        C274   1.286       .  A
C274        C699   1.482       .  S
O275       Zr284   2.471       .  S
O275        C277   1.292       .  A
O276       Zr288   2.422       .  S
O276        C277   1.287       .  A
C277        C727   1.494       .  S
O278       Zr281   2.437       .  S
O278        C280   1.286       .  A
O279       Zr287   2.428       .  S
O279        C280   1.288       .  A
C280       C1455   1.491       .  S
Zr281       O282   2.433       .  S
Zr281       O283   2.433       .  S
Zr281       O289   2.369       .  S
Zr281       O290   2.365       .  S
Zr281       O293   2.374       .  S
Zr281       O291   2.367       .  S
O282        H302   0.990       .  S
O282        H307   0.990       .  S
O283        H303   0.990       .  S
Zr284       O285   2.435   1_556  S
Zr284       O286   2.435       .  S
Zr284       O290   2.381   1_556  S
Zr284       O289   2.377   1_556  S
Zr284       O294   2.371       .  S
Zr284       O292   2.383       .  S
O285        H301   0.990       .  S
O286        H300   0.990       .  S
O286        H310   0.990       .  S
Zr287       O290   2.386       .  S
Zr287       O292   2.390   1_554  S
Zr287       O293   2.384       .  S
Zr288       O289   2.385   1_556  S
Zr288       O291   2.376   1_556  S
Zr288       O294   2.386       .  S
O289        H297   0.966       .  S
O292        H296   0.967       .  S
O293        H298   0.965       .  S
O311       Zr323   2.440   1_554  S
O311        C313   1.288       .  A
O312       Zr349   2.428       .  S
O312        C313   1.286   1_556  A
C313        C671   1.480       .  S
O314       Zr326   2.422       .  S
O314        C316   1.284       .  A
O315       Zr350   2.425       .  S
O315        C316   1.287       .  A
C316       C1315   1.488       .  S
O317       Zr326   2.425       .  S
O317        C319   1.285       .  A
O318       Zr349   2.421       .  S
O318        C319   1.285       .  A
C319       C1384   1.473       .  S
O320       Zr323   2.439   1_554  S
O320        C322   1.288       .  A
O321       Zr350   2.425       .  S
O321        C322   1.286   1_556  A
C322        C656   1.475       .  S
Zr323       O324   2.434       .  S
Zr323       O325   2.436   1_556  S
Zr323       O329   2.366       .  S
Zr323       O330   2.366       .  S
Zr323       O353   2.366   1_556  S
Zr323       O355   2.367   1_556  S
O324        H367   0.990       .  S
O325        H366   0.990       .  S
O325        H370   0.990       .  S
Zr326       O327   2.437       .  S
Zr326       O328   2.436       .  S
Zr326       O330   2.370       .  S
Zr326       O329   2.365       .  S
Zr326       O354   2.371       .  S
Zr326       O356   2.372       .  S
O327        H368   0.990       .  S
O327        H371   0.990       .  S
O328        H361   0.990       .  S
O329       Zr349   2.374       .  S
O330       Zr350   2.382       .  S
O330        H357   0.965       .  S
O331       Zr343   2.431       .  S
O331        C333   1.286       .  A
O332       Zr350   2.429   1_554  S
O332        C333   1.287       .  A
C333       C1287   1.481       .  S
O334       Zr346   2.463   1_554  S
O334        C336   1.292       .  A
O335       Zr349   2.411       .  S
O335        C336   1.286   1_556  A
C336        C615   1.488       .  S
O337       Zr346   2.460       .  S
O337        C339   1.291       .  A
O338       Zr350   2.413       .  S
O338        C339   1.285       .  A
C339        C796   1.475       .  S
O340       Zr343   2.434       .  S
O340        C342   1.288       .  A
O341       Zr349   2.416   1_554  S
O341        C342   1.285       .  A
C342       C1356   1.482       .  S
Zr343       O344   2.435       .  S
Zr343       O345   2.432       .  S
Zr343       O351   2.370       .  S
Zr343       O352   2.368       .  S
Zr343       O355   2.367       .  S
Zr343       O353   2.369       .  S
O344        H364   0.990       .  S
O344        H369   0.990       .  S
O345        H365   0.990       .  S
Zr346       O347   2.433   1_556  S
Zr346       O348   2.436       .  S
Zr346       O352   2.375   1_556  S
Zr346       O351   2.378   1_556  S
Zr346       O356   2.378       .  S
Zr346       O354   2.379       .  S
O347        H363   0.990       .  S
O348        H362   0.990       .  S
O348        H372   0.990       .  S
Zr349       O352   2.382   1_556  S
Zr349       O354   2.387       .  S
Zr349       O355   2.381   1_556  S
Zr350       O351   2.388   1_556  S
Zr350       O353   2.377   1_556  S
Zr350       O356   2.383       .  S
O351        H359   0.966       .  S
O354        H358   0.967       .  S
O355        H360   0.966       .  S
O373       Zr385   2.434       .  S
O373        C375   1.288       .  A
O374       Zr411   2.417       .  S
O374        C375   1.284       .  A
C375       C1427   1.492       .  S
O376       Zr388   2.437       .  S
O376        C378   1.287       .  A
O377       Zr412   2.423       .  S
O377        C378   1.285   1_554  A
C378        C600   1.469       .  S
O379       Zr388   2.442       .  S
O379        C381   1.288       .  A
O380       Zr411   2.428       .  S
O380        C381   1.286       .  A
C381        C684   1.475       .  S
O382       Zr385   2.443       .  S
O382        C384   1.289       .  A
O383       Zr412   2.425   1_556  S
O383        C384   1.287       .  A
C384       C1048   1.478       .  S
Zr385       O386   2.433       .  S
Zr385       O387   2.434       .  S
Zr385       O391   2.368       .  S
Zr385       O392   2.365       .  S
Zr385       O415   2.368       .  S
Zr385       O417   2.369       .  S
O386        H429   0.990       .  S
O387        H428   0.990       .  S
O387        H432   0.990       .  S
Zr388       O389   2.436       .  S
Zr388       O390   2.435   1_556  S
Zr388       O392   2.363       .  S
Zr388       O391   2.363       .  S
Zr388       O416   2.364   1_556  S
Zr388       O418   2.372   1_556  S
O389        H430   0.990       .  S
O389        H433   0.990       .  S
O390        H423   0.990       .  S
O391       Zr411   2.375       .  S
O392       Zr412   2.380   1_556  S
O392        H419   0.966       .  S
O393       Zr405   2.472       .  S
O393        C395   1.293   1_554  A
O394       Zr412   2.419       .  S
O394        C395   1.286   1_554  A
C395        C824   1.488       .  S
O396       Zr408   2.439       .  S
O396        C398   1.288       .  A
O397       Zr411   2.423   1_554  S
O397        C398   1.285       .  A
C398       C1399   1.480       .  S
O399       Zr408   2.439       .  S
O399        C401   1.287       .  A
O400       Zr412   2.425       .  S
O400        C401   1.287       .  A
C401       C1007   1.486       .  S
O402       Zr405   2.464       .  S
O402        C404   1.292       .  A
O403       Zr411   2.408       .  S
O403        C404   1.285   1_556  A
C404        C712   1.478       .  S
Zr405       O406   2.435       .  S
Zr405       O407   2.433   1_554  S
Zr405       O413   2.377       .  S
Zr405       O414   2.382       .  S
Zr405       O417   2.383   1_554  S
Zr405       O415   2.378   1_554  S
O406        H426   0.990       .  S
O406        H431   0.990       .  S
O407        H427   0.990       .  S
Zr408       O409   2.436       .  S
Zr408       O410   2.436       .  S
Zr408       O414   2.373       .  S
Zr408       O413   2.377       .  S
Zr408       O418   2.372       .  S
Zr408       O416   2.370       .  S
O409        H425   0.990       .  S
O410        H424   0.990       .  S
O410        H434   0.990       .  S
Zr411       O414   2.384   1_556  S
Zr411       O416   2.378   1_556  S
Zr411       O417   2.391       .  S
Zr412       O413   2.388       .  S
Zr412       O415   2.382   1_554  S
Zr412       O418   2.378       .  S
O413        H421   0.966       .  S
O416        H420   0.966       .  S
O417        H422   0.967       .  S
O435       Zr447   2.428       .  S
O435        C437   1.287       .  A
O436       Zr473   2.430       .  S
O436        C437   1.286       .  A
C437        C643   1.486       .  S
O438       Zr450   2.444       .  S
O438        C440   1.288       .  A
O439       Zr474   2.418   1_556  S
O439        C440   1.286       .  A
C440       C1091   1.484       .  S
O441       Zr450   2.421       .  S
O441        C443   1.285       .  A
O442       Zr473   2.417       .  S
O442        C443   1.286       .  A
C443       C1272   1.467       .  S
O444       Zr447   2.426   1_554  S
O444        C446   1.286       .  A
O445       Zr474   2.443       .  S
O445        C446   1.289       .  A
C446        C587   1.493       .  S
Zr447       O448   2.432       .  S
Zr447       O449   2.436   1_556  S
Zr447       O453   2.360       .  S
Zr447       O454   2.364       .  S
Zr447       O477   2.368   1_556  S
Zr447       O479   2.356   1_556  S
O448        H491   0.990       .  S
O449        H490   0.990       .  S
O449        H494   0.990       .  S
Zr450       O451   2.438       .  S
Zr450       O452   2.433       .  S
Zr450       O454   2.367       .  S
Zr450       O453   2.374       .  S
Zr450       O478   2.371       .  S
Zr450       O480   2.362       .  S
O451        H492   0.990       .  S
O451        H495   0.990       .  S
O452        H485   0.990       .  S
O453       Zr473   2.377       .  S
O454       Zr474   2.375   1_556  S
O454        H481   0.966       .  S
O455       Zr467   2.442       .  S
O455        C457   1.289       .  A
O456       Zr474   2.415       .  S
O456        C457   1.285       .  A
C457       C1063   1.482       .  S
O458       Zr470   2.466       .  S
O458        C460   1.292       .  A
O459       Zr473   2.413       .  S
O459        C460   1.285       .  A
C460        C740   1.478       .  S
O461       Zr470   2.465       .  S
O461        C463   1.293       .  A
O462       Zr474   2.416   1_556  S
O462        C463   1.287       .  A
C463        C559   1.490       .  S
O464       Zr467   2.438       .  S
O464        C466   1.288       .  A
O465       Zr473   2.432   1_554  S
O465        C466   1.287       .  A
C466       C1244   1.492       .  S
Zr467       O468   2.434       .  S
Zr467       O469   2.434       .  S
Zr467       O475   2.369       .  S
Zr467       O476   2.369       .  S
Zr467       O479   2.371       .  S
Zr467       O477   2.375       .  S
O468        H488   0.990       .  S
O468        H493   0.991       .  S
O469        H489   0.990       .  S
Zr470       O471   2.432   1_556  S
Zr470       O472   2.434       .  S
Zr470       O476   2.383   1_556  S
Zr470       O475   2.381   1_556  S
Zr470       O480   2.376       .  S
Zr470       O478   2.373       .  S
O471        H487   0.990       .  S
O472        H486   0.990       .  S
O472        H496   0.990       .  S
Zr473       O476   2.387   1_556  S
Zr473       O478   2.391       .  S
Zr473       O479   2.377   1_556  S
Zr474       O475   2.392       .  S
Zr474       O477   2.377       .  S
Zr474       O480   2.383   1_554  S
O475        H483   0.967       .  S
O478        H482   0.966       .  S
O479        H484   0.965       .  S
O497       Zr509   2.431       .  S
O497        C499   1.285       .  A
O498       Zr535   2.420       .  S
O498        C499   1.286       .  A
C499       C1552   1.490       .  S
O500       Zr512   2.436       .  S
O500        C502   1.287       .  A
O501       Zr536   2.428       .  S
O501        C502   1.287       .  A
C502        C880   1.475       .  S
O503       Zr512   2.429       .  S
O503        C505   1.286       .  A
O504       Zr535   2.437       .  S
O504        C505   1.288       .  A
C505        C768   1.480       .  S
O506       Zr509   2.433       .  S
O506        C508   1.286       .  A
O507       Zr536   2.435       .  S
O507        C508   1.288       .  A
C508        C923   1.475       .  S
Zr509       O510   2.433       .  S
Zr509       O511   2.435       .  S
Zr509       O515   2.374       .  S
Zr509       O516   2.368       .  S
Zr509       O539   2.371       .  S
Zr509       O541   2.369       .  S
O510        H553   0.990       .  S
O511        H552   0.990       .  S
O511        H556   0.990       .  S
Zr512       O513   2.435       .  S
Zr512       O514   2.433   1_556  S
Zr512       O516   2.360       .  S
Zr512       O515   2.366       .  S
Zr512       O540   2.365   1_556  S
Zr512       O542   2.372   1_556  S
O513        H554   0.990       .  S
O513        H557   0.990       .  S
O514        H547   0.990       .  S
O515       Zr535   2.378       .  S
O516       Zr536   2.384       .  S
O516        H543   0.965       .  S
O517       Zr529   2.473       .  S
O517        C519   1.294       .  A
O518       Zr536   2.421   1_554  S
O518        C519   1.287       .  A
C519        C572   1.485       .  S
O520       Zr532   2.433       .  S
O520        C522   1.286       .  A
O521       Zr535   2.433   1_554  S
O521        C522   1.288       .  A
C522       C1511   1.482       .  S
O523       Zr532   2.429       .  S
O523        C525   1.286       .  A
O524       Zr536   2.433   1_554  S
O524        C525   1.288       .  A
C525        C895   1.485       .  S
O526       Zr529   2.478       .  S
O526        C528   1.295       .  A
O527       Zr535   2.402   1_554  S
O527        C528   1.284       .  A
C528        C628   1.489       .  S
Zr529       O530   2.436       .  S
Zr529       O531   2.436   1_554  S
Zr529       O537   2.381       .  S
Zr529       O538   2.379       .  S
Zr529       O541   2.379   1_554  S
Zr529       O539   2.383   1_554  S
O530        H550   0.990       .  S
O530        H555   0.990       .  S
O531        H551   0.990       .  S
Zr532       O533   2.435       .  S
Zr532       O534   2.433       .  S
Zr532       O538   2.368       .  S
Zr532       O537   2.369       .  S
Zr532       O542   2.372       .  S
Zr532       O540   2.364       .  S
O533        H549   0.990       .  S
O534        H548   0.990       .  S
O534        H558   0.990       .  S
Zr535       O538   2.384   1_556  S
Zr535       O540   2.375   1_556  S
Zr535       O541   2.392       .  S
Zr536       O537   2.389   1_556  S
Zr536       O539   2.388       .  S
Zr536       O542   2.379   1_556  S
O537        H545   0.966       .  S
O540        H544   0.965       .  S
O541        H546   0.966       .  S
C559        C560   1.416   1_556  A
C559        C564   1.407       .  A
C560        C561   1.413       .  A
C560        N565   1.437       .  S
C561        C562   1.403   1_554  A
C561        H566   1.083       .  S
C562        C567   1.487   1_556  S
C562        C563   1.409       .  A
C563        C564   1.405       .  A
C563        N568   1.439       .  S
C564        H569   1.084       .  S
N565        H585   1.046       .  S
N565        H586   1.045       .  S
C567        C570   1.404   1_554  A
C567        C574   1.410       .  A
N568        H583   1.045       .  S
N568        H584   1.045       .  S
C570        C571   1.412       .  A
C570        H575   1.084       .  S
C571        C572   1.413   1_556  A
C571        N576   1.437       .  S
C572        C573   1.406       .  A
C573        C574   1.408       .  A
C573        H577   1.084       .  S
C574        N578   1.439       .  S
N576        H579   1.046       .  S
N576        H580   1.045       .  S
N578        H581   1.046       .  S
N578        H582   1.045       .  S
C587        C588   1.419   1_554  A
C587        C592   1.409       .  A
C588        C589   1.411       .  A
C588        N593   1.436       .  S
C589        C590   1.401   1_556  A
C589        H594   1.084       .  S
C590        C595   1.478   1_554  S
C590        C591   1.405       .  A
C591        C592   1.400       .  A
C591        N596   1.439       .  S
C592        H597   1.083       .  S
N593        H613   1.045       .  S
N593        H614   1.046       .  S
C595        C598   1.401       .  A
C595        C602   1.411   1_556  A
N596        H611   1.046       .  S
N596        H612   1.045       .  S
C598        C599   1.403       .  A
C598        H603   1.084       .  S
C599        C600   1.408       .  A
C599        N604   1.438       .  S
C600        C601   1.402   1_556  A
C601        C602   1.407       .  A
C601        H605   1.084       .  S
C602        N606   1.438       .  S
N604        H607   1.046       .  S
N604        H608   1.046       .  S
N606        H609   1.046       .  S
N606        H610   1.045       .  S
C615        C616   1.415       .  A
C615        C620   1.405   1_554  A
C616        C617   1.413       .  A
C616        N621   1.437       .  S
C617        C618   1.404       .  A
C617        H622   1.083       .  S
C618        C623   1.486   1_565  S
C618        C619   1.409   1_554  A
C619        C620   1.401       .  A
C619        N624   1.439       .  S
C620        H625   1.082       .  S
N621        H641   1.046       .  S
N621        H642   1.046       .  S
C623        C626   1.399       .  A
C623        C630   1.411   1_554  A
N624        H639   1.046       .  S
N624        H640   1.046       .  S
C626        C627   1.401       .  A
C626        H631   1.084       .  S
C627        C628   1.417       .  A
C627        N632   1.439       .  S
C628        C629   1.407   1_554  A
C629        C630   1.414       .  A
C629        H633   1.083       .  S
C630        N634   1.437       .  S
N632        H635   1.046       .  S
N632        H636   1.046       .  S
N634        H637   1.046       .  S
N634        H638   1.045       .  S
C643        C644   1.417   1_556  A
C643        C648   1.407       .  A
C644        C645   1.411       .  A
C644        N649   1.437       .  S
C645        C646   1.402   1_554  A
C645        H650   1.083       .  S
C646        C651   1.477       .  S
C646        C647   1.405       .  A
C647        C648   1.398       .  A
C647        N652   1.438       .  S
C648        H653   1.084       .  S
N649        H669   1.045       .  S
N649        H670   1.046       .  S
C651        C654   1.401   1_556  A
C651        C658   1.409       .  A
N652        H667   1.046       .  S
N652        H668   1.045       .  S
C654        C655   1.402       .  A
C654        H659   1.084       .  S
C655        C656   1.410       .  A
C655        N660   1.438       .  S
C656        C657   1.405   1_554  A
C657        C658   1.409       .  A
C657        H661   1.084       .  S
C658        N662   1.437       .  S
N660        H663   1.046       .  S
N660        H664   1.046       .  S
N662        H665   1.046       .  S
N662        H666   1.046       .  S
C671        C672   1.414   1_554  A
C671        C676   1.403       .  A
C672        C673   1.410       .  A
C672        N677   1.438       .  S
C673        C674   1.404       .  A
C673        H678   1.084       .  S
C674        C679   1.483       .  S
C674        C675   1.409   1_556  A
C675        C676   1.403       .  A
C675        N680   1.438       .  S
C676        H681   1.084       .  S
N677        H697   1.045       .  S
N677        H698   1.045       .  S
C679        C682   1.404   1_556  A
C679        C686   1.410       .  A
N680        H695   1.046       .  S
N680        H696   1.046       .  S
C682        C683   1.408       .  A
C682        H687   1.084       .  S
C683        C684   1.411   1_554  A
C683        N688   1.438       .  S
C684        C685   1.402       .  A
C685        C686   1.405       .  A
C685        H689   1.084       .  S
C686        N690   1.438       .  S
N688        H691   1.046       .  S
N688        H692   1.046       .  S
N690        H693   1.046       .  S
N690        H694   1.045       .  S
C699        C700   1.415       .  A
C699        C704   1.405   1_554  A
C700        C701   1.404       .  A
C700        N705   1.438       .  S
C701        C702   1.400       .  A
C701        H706   1.084       .  S
C702        C707   1.477   1_545  S
C702        C703   1.408   1_554  A
C703        C704   1.407       .  A
C703        N708   1.437       .  S
C704        H709   1.084       .  S
N705        H725   1.045       .  S
N705        H726   1.046       .  S
C707        C710   1.400   1_554  A
C707        C714   1.409       .  A
N708        H723   1.046       .  S
N708        H724   1.045       .  S
C710        C711   1.403       .  A
C710        H715   1.084       .  S
C711        C712   1.413   1_556  A
C711        N716   1.439       .  S
C712        C713   1.404       .  A
C713        C714   1.409       .  A
C713        H717   1.084       .  S
C714        N718   1.437       .  S
N716        H719   1.046       .  S
N716        H720   1.046       .  S
N718        H721   1.046       .  S
N718        H722   1.045       .  S
C727        C728   1.417   1_556  A
C727        C732   1.408       .  A
C728        C729   1.412       .  A
C728        N733   1.437       .  S
C729        C730   1.403   1_554  A
C729        H734   1.084       .  S
C730        C735   1.487   1_655  S
C730        C731   1.408       .  A
C731        C732   1.407       .  A
C731        N736   1.438       .  S
C732        H737   1.084       .  S
N733        H753   1.045       .  S
N733        H754   1.046       .  S
C735        C738   1.404       .  A
C735        C742   1.410   1_556  A
N736        H751   1.046       .  S
N736        H752   1.046   1_655  S
C738        C739   1.411       .  A
C738        H743   1.083       .  S
C739        C740   1.411       .  A
C739        N744   1.437       .  S
C740        C741   1.403   1_556  A
C741        C742   1.406       .  A
C741        H745   1.084       .  S
C742        N746   1.438       .  S
N744        H747   1.046       .  S
N744        H748   1.045       .  S
N746        H749   1.046       .  S
N746        H750   1.046       .  S
C755        C756   1.414       .  A
C755        C760   1.406   1_556  A
C756        C757   1.402       .  A
C756        N761   1.438       .  S
C757        C758   1.399       .  A
C757        H762   1.084       .  S
C758        C763   1.478       .  S
C758        C759   1.409   1_556  A
C759        C760   1.409       .  A
C759        N764   1.437       .  S
C760        H765   1.084       .  S
N761        H781   1.046       .  S
N761        H782   1.046       .  S
C763        C766   1.404       .  A
C763        C770   1.407   1_556  A
N764        H779   1.046       .  S
N764        H780   1.045       .  S
C766        C767   1.412       .  A
C766        H771   1.083       .  S
C767        C768   1.413       .  A
C767        N772   1.438       .  S
C768        C769   1.404   1_556  A
C769        C770   1.400       .  A
C769        H773   1.084       .  S
C770        N774   1.438       .  S
N772        H775   1.046       .  S
N772        H776   1.046       .  S
N774        H777   1.046       .  S
N774        H778   1.045       .  S
C783        C784   1.415       .  A
C783        C788   1.407   1_554  A
C784        C785   1.404       .  A
C784        N789   1.438       .  S
C785        C786   1.399       .  A
C785        H790   1.084       .  S
C786        C791   1.481   1_655  S
C786        C787   1.409   1_554  A
C787        C788   1.411       .  A
C787        N792   1.437       .  S
C788        H793   1.084       .  S
N789        H809   1.046       .  S
N789        H810   1.046       .  S
C791        C794   1.402   1_554  A
C791        C798   1.410       .  A
N792        H807   1.046       .  S
N792        H808   1.046       .  S
C794        C795   1.405       .  A
C794        H799   1.084       .  S
C795        C796   1.411       .  A
C795        N800   1.438       .  S
C796        C797   1.403   1_556  A
C797        C798   1.409       .  A
C797        H801   1.084       .  S
C798        N802   1.437       .  S
N800        H803   1.046       .  S
N800        H804   1.046       .  S
N802        H805   1.046       .  S
N802        H806   1.045       .  S
C811        C812   1.418   1_554  A
C811        C816   1.409       .  A
C812        C813   1.417       .  A
C812        N817   1.437       .  S
C813        C814   1.406       .  A
C813        H818   1.083       .  S
C814        C819   1.492       .  S
C814        C815   1.408   1_556  A
C815        C816   1.404       .  A
C815        N820   1.438       .  S
C816        H821   1.083       .  S
N817        H837   1.046       .  S
N817        H838   1.046       .  S
C819        C822   1.403       .  A
C819        C826   1.412   1_556  A
N820        H835   1.046       .  S
N820        H836   1.046       .  S
C822        C823   1.407       .  A
C822        H827   1.084       .  S
C823        C824   1.414       .  A
C823        N828   1.439       .  S
C824        C825   1.406   1_556  A
C825        C826   1.415       .  A
C825        H829   1.083       .  S
C826        N830   1.437       .  S
N828        H831   1.046       .  S
N828        H832   1.046       .  S
N830        H833   1.046       .  S
N830        H834   1.046       .  S
C839        C840   1.416       .  A
C839        C844   1.407   1_554  A
C840        C841   1.412       .  A
C840        N845   1.438       .  S
C841        C842   1.402   1_554  A
C841        H846   1.083       .  S
C842        C847   1.478   1_556  S
C842        C843   1.406       .  A
C843        C844   1.400       .  A
C843        N848   1.439       .  S
C844        H849   1.084       .  S
N845        H865   1.046       .  S
N845        H866   1.046       .  S
C847        C850   1.399       .  A
C847        C854   1.410   1_554  A
N848        H863   1.046       .  S
N848        H864   1.045       .  S
C850        C851   1.401       .  A
C850        H855   1.084       .  S
C851        C852   1.411       .  A
C851        N856   1.438       .  S
C852        C853   1.404   1_554  A
C853        C854   1.410       .  A
C853        H857   1.084       .  S
C854        N858   1.437       .  S
N856        H859   1.046       .  S
N856        H860   1.045       .  S
N858        H861   1.046       .  S
N858        H862   1.045       .  S
C867        C868   1.413   1_554  A
C867        C872   1.405       .  A
C868        C869   1.410       .  A
C868        N873   1.437       .  S
C869        C870   1.403   1_556  A
C869        H874   1.084       .  S
C870        C875   1.481       .  S
C870        C871   1.408       .  A
C871        C872   1.402       .  A
C871        N876   1.438       .  S
C872        H877   1.084       .  S
N873        H893   1.045       .  S
N873        H894   1.046       .  S
C875        C878   1.402   1_554  A
C875        C882   1.417       .  A
N876        H891   1.046       .  S
N876        H892   1.045       .  S
C878        C879   1.404       .  A
C878        H883   1.084       .  S
C879        C880   1.411       .  A
C879        N884   1.438       .  S
C880        C881   1.403   1_556  A
C881        C882   1.403       .  A
C881        H885   1.084       .  S
C882        N886   1.438       .  S
N884        H887   1.046       .  S
N884        H888   1.046       .  S
N886        H889   1.045       .  S
N886        H890   1.044       .  S
C895        C896   1.417       .  A
C895        C900   1.405       .  A
C896        C897   1.403       .  A
C896        N901   1.438       .  S
C897        C898   1.400       .  A
C897        H902   1.084       .  S
C898        C903   1.485       .  S
C898        C899   1.411       .  A
C899        C900   1.408       .  A
C899        N904   1.438       .  S
C900        H905   1.083       .  S
N901        H921   1.046       .  S
N901        H922   1.046       .  S
C903        C906   1.400       .  A
C903        C910   1.408       .  A
N904        H919   1.046       .  S
N904        H920   1.046       .  S
C906        C907   1.407       .  A
C906        H911   1.084       .  S
C907        C908   1.422       .  A
C907        N912   1.438       .  S
C908        C909   1.409       .  A
C909        C910   1.404       .  A
C909        H913   1.083       .  S
C910        N914   1.437       .  S
N912        H915   1.046       .  S
N912        H916   1.046       .  S
N914        H917   1.046       .  S
N914        H918   1.046       .  S
C923        C924   1.411       .  A
C923        C928   1.403       .  A
C924        C925   1.405       .  A
C924        N929   1.437       .  S
C925        C926   1.403       .  A
C925        H930   1.084       .  S
C926        C931   1.483       .  S
C926        C927   1.411       .  A
C927        C928   1.405       .  A
C927        N932   1.438       .  S
C928        H933   1.084       .  S
N929        H949   1.046       .  S
N929        H950   1.046       .  S
C931        C934   1.398       .  A
C931        C938   1.410       .  A
N932        H947   1.046       .  S
N932        H948   1.046       .  S
C934        C935   1.403       .  A
C934        H939   1.084       .  S
C935        C936   1.421       .  A
C935        N940   1.438       .  S
C936        C937   1.407       .  A
C937        C938   1.406       .  A
C937        H941   1.083       .  S
C938        N942   1.438       .  S
N940        H943   1.046       .  S
N940        H944   1.046       .  S
N942        H945   1.045       .  S
N942        H946   1.046       .  S
C951        C952   1.416       .  A
C951        C956   1.404       .  A
C952        C953   1.402       .  A
C952        N957   1.439       .  S
C953        C954   1.399       .  A
C953        H958   1.084       .  S
C954        C959   1.474       .  S
C954        C955   1.409       .  A
C955        C956   1.403       .  A
C955        N960   1.438       .  S
C956        H961   1.084       .  S
N957        H977   1.045       .  S
N957        H978   1.046       .  S
C959        C962   1.399       .  A
C959        C966   1.409       .  A
N960        H975   1.046       .  S
N960        H976   1.046       .  S
C962        C963   1.400       .  A
C962        H967   1.084       .  S
C963        C964   1.413       .  A
C963        N968   1.438       .  S
C964        C965   1.405       .  A
C965        C966   1.404       .  A
C965        H969   1.084       .  S
C966        N970   1.438       .  S
N968        H971   1.046       .  S
N968        H972   1.046       .  S
N970        H973   1.046       .  S
N970        H974   1.046       .  S
C979        C980   1.414       .  A
C979        C984   1.407       .  A
C980        C981   1.402       .  A
C980        N985   1.438       .  S
C981        C982   1.401       .  A
C981        H986   1.084       .  S
C982        C987   1.478       .  S
C982        C983   1.408       .  A
C983        C984   1.404       .  A
C983        N988   1.438       .  S
C984        H989   1.084       .  S
N985       H1005   1.046       .  S
N985       H1006   1.046       .  S
C987        C990   1.401       .  A
C987        C994   1.406       .  A
N988       H1003   1.046       .  S
N988       H1004   1.046       .  S
C990        C991   1.400       .  A
C990        H995   1.084       .  S
C991        C992   1.421       .  A
C991        N996   1.433       .  S
C992        C993   1.409       .  A
C993        C994   1.401       .  A
C993        H997   1.083       .  S
C994        N998   1.438       .  S
N996        H999   1.045       .  S
N996       H1000   1.044       .  S
N998       H1001   1.046       .  S
N998       H1002   1.046       .  S
C1007      C1008   1.415       .  A
C1007      C1012   1.406       .  A
C1008      C1009   1.404       .  A
C1008      N1013   1.438       .  S
C1009      C1010   1.402       .  A
C1009      H1014   1.084       .  S
C1010      C1015   1.486       .  S
C1010      C1011   1.411       .  A
C1011      C1012   1.406       .  A
C1011      N1016   1.438       .  S
C1012      H1017   1.084       .  S
N1013      H1033   1.046       .  S
N1013      H1034   1.046       .  S
C1015      C1018   1.404       .  A
C1015      C1022   1.413       .  A
N1016      H1031   1.046       .  S
N1016      H1032   1.045       .  S
C1018      C1019   1.403       .  A
C1018      H1023   1.083       .  S
C1019      C1020   1.407       .  A
C1019      N1024   1.438       .  S
C1020      C1021   1.400       .  A
C1021      C1022   1.405       .  A
C1021      H1025   1.084       .  S
C1022      N1026   1.437       .  S
N1024      H1027   1.045       .  S
N1024      H1028   1.046       .  S
N1026      H1029   1.046       .  S
N1026      H1030   1.045       .  S
C1035      C1036   1.418       .  A
C1035      C1040   1.408       .  A
C1036      C1037   1.407       .  A
C1036      N1041   1.438       .  S
C1037      C1038   1.403       .  A
C1037      H1042   1.084       .  S
C1038      C1043   1.491       .  S
C1038      C1039   1.412       .  A
C1039      C1040   1.406       .  A
C1039      N1044   1.438       .  S
C1040      H1045   1.084       .  S
N1041      H1061   1.046       .  S
N1041      H1062   1.046       .  S
C1043      C1046   1.406       .  A
C1043      C1050   1.415       .  A
N1044      H1059   1.046       .  S
N1044      H1060   1.046       .  S
C1046      C1047   1.404       .  A
C1046      H1051   1.084       .  S
C1047      C1048   1.407       .  A
C1047      N1052   1.432       .  S
C1048      C1049   1.403       .  A
C1049      C1050   1.406       .  A
C1049      H1053   1.084       .  S
C1050      N1054   1.438       .  S
N1052      H1055   1.045       .  S
N1052      H1056   1.045       .  S
N1054      H1057   1.046       .  S
N1054      H1058   1.046       .  S
C1063      C1064   1.416       .  A
C1063      C1068   1.405       .  A
C1064      C1065   1.404       .  A
C1064      N1069   1.439       .  S
C1065      C1066   1.402       .  A
C1065      H1070   1.084       .  S
C1066      C1071   1.484       .  S
C1066      C1067   1.411       .  A
C1067      C1068   1.404       .  A
C1067      N1072   1.438       .  S
C1068      H1073   1.084       .  S
N1069      H1089   1.046       .  S
N1069      H1090   1.046       .  S
C1071      C1074   1.403       .  A
C1071      C1078   1.410       .  A
N1072      H1087   1.046       .  S
N1072      H1088   1.046       .  S
C1074      C1075   1.404       .  A
C1074      H1079   1.084       .  S
C1075      C1076   1.414       .  A
C1075      N1080   1.438       .  S
C1076      C1077   1.407       .  A
C1077      C1078   1.404       .  A
C1077      H1081   1.084       .  S
C1078      N1082   1.438       .  S
N1080      H1083   1.046       .  S
N1080      H1084   1.045       .  S
N1082      H1085   1.046       .  S
N1082      H1086   1.046       .  S
C1091      C1092   1.413       .  A
C1091      C1096   1.405       .  A
C1092      C1093   1.403       .  A
C1092      N1097   1.438       .  S
C1093      C1094   1.402       .  A
C1093      H1098   1.084       .  S
C1094      C1099   1.477       .  S
C1094      C1095   1.416       .  A
C1095      C1096   1.401       .  A
C1095      N1100   1.440       .  S
C1096      H1101   1.082       .  S
N1097      H1117   1.046       .  S
N1097      H1118   1.046       .  S
C1099      C1102   1.403       .  A
C1099      C1106   1.410       .  A
N1100      H1115   1.046       .  S
N1100      H1116   1.043       .  S
C1102      C1103   1.403       .  A
C1102      H1107   1.084       .  S
C1103      C1104   1.408       .  A
C1103      N1108   1.437       .  S
C1104      C1105   1.404       .  A
C1105      C1106   1.404       .  A
C1105      H1109   1.082       .  S
C1106      N1110   1.439       .  S
N1108      H1111   1.045       .  S
N1108      H1112   1.046       .  S
N1110      H1113   1.046       .  S
N1110      H1114   1.044       .  S
C1119      C1120   1.415       .  A
C1119      C1124   1.403       .  A
C1120      C1121   1.404       .  A
C1120      N1125   1.439       .  S
C1121      C1122   1.401       .  A
C1121      H1126   1.084       .  S
C1122      C1127   1.476       .  S
C1122      C1123   1.408       .  A
C1123      C1124   1.401       .  A
C1123      N1128   1.438       .  S
C1124      H1129   1.084       .  S
N1125      H1145   1.046       .  S
N1125      H1146   1.046       .  S
C1127      C1130   1.398       .  A
C1127      C1134   1.408       .  A
N1128      H1143   1.046       .  S
N1128      H1144   1.046       .  S
C1130      C1131   1.400       .  A
C1130      H1135   1.084       .  S
C1131      C1132   1.419       .  A
C1131      N1136   1.438       .  S
C1132      C1133   1.406       .  A
C1133      C1134   1.405       .  A
C1133      H1137   1.083       .  S
C1134      N1138   1.437       .  S
N1136      H1139   1.046       .  S
N1136      H1140   1.046       .  S
N1138      H1141   1.046       .  S
N1138      H1142   1.045       .  S
C1147      C1148   1.412       .  A
C1147      C1152   1.403       .  A
C1148      C1149   1.406       .  A
C1148      N1153   1.438       .  S
C1149      C1150   1.404       .  A
C1149      H1154   1.084       .  S
C1150      C1155   1.486       .  S
C1150      C1151   1.411       .  A
C1151      C1152   1.404       .  A
C1151      N1156   1.438       .  S
C1152      H1157   1.084       .  S
N1153      H1173   1.045       .  S
N1153      H1174   1.046       .  S
C1155      C1158   1.403       .  A
C1155      C1162   1.409       .  A
N1156      H1171   1.046       .  S
N1156      H1172   1.046       .  S
C1158      C1159   1.405       .  A
C1158      H1163   1.084       .  S
C1159      C1160   1.417       .  A
C1159      N1164   1.438       .  S
C1160      C1161   1.408       .  A
C1161      C1162   1.405       .  A
C1161      H1165   1.083       .  S
C1162      N1166   1.438       .  S
N1164      H1167   1.046       .  S
N1164      H1168   1.045       .  S
N1166      H1169   1.046       .  S
N1166      H1170   1.046       .  S
C1175      C1176   1.413       .  A
C1175      C1180   1.407       .  A
C1176      C1177   1.405       .  A
C1176      N1181   1.438       .  S
C1177      C1178   1.404       .  A
C1177      H1182   1.084       .  S
C1178      C1183   1.484       .  S
C1178      C1179   1.408       .  A
C1179      C1180   1.404       .  A
C1179      N1184   1.438       .  S
C1180      H1185   1.084       .  S
N1181      H1201   1.046       .  S
N1181      H1202   1.046       .  S
C1183      C1186   1.403       .  A
C1183      C1190   1.409       .  A
N1184      H1199   1.046       .  S
N1184      H1200   1.046       .  S
C1186      C1187   1.408       .  A
C1186      H1191   1.084       .  S
C1187      C1188   1.414       .  A
C1187      N1192   1.437       .  S
C1188      C1189   1.406       .  A
C1189      C1190   1.404       .  A
C1189      H1193   1.084       .  S
C1190      N1194   1.438       .  S
N1192      H1195   1.046       .  S
N1192      H1196   1.045       .  S
N1194      H1197   1.046       .  S
N1194      H1198   1.046       .  S
C1203      C1204   1.414       .  A
C1203      C1208   1.405       .  A
C1204      C1205   1.400       .  A
C1204      N1209   1.439       .  S
C1205      C1206   1.401       .  A
C1205      H1210   1.084       .  S
C1206      C1211   1.470       .  S
C1206      C1207   1.406       .  A
C1207      C1208   1.399       .  A
C1207      N1212   1.438       .  S
C1208      H1213   1.084       .  S
N1209      H1229   1.046       .  S
N1209      H1230   1.046       .  S
C1211      C1214   1.398       .  A
C1211      C1218   1.405       .  A
N1212      H1227   1.046       .  S
N1212      H1228   1.046       .  S
C1214      C1215   1.399       .  A
C1214      H1219   1.084       .  S
C1215      C1216   1.420       .  A
C1215      N1220   1.439       .  S
C1216      C1217   1.408       .  A
C1217      C1218   1.399       .  A
C1217      H1221   1.083       .  S
C1218      N1222   1.438       .  S
N1220      H1223   1.046       .  S
N1220      H1224   1.046       .  S
N1222      H1225   1.046       .  S
N1222      H1226   1.046       .  S
C1231      C1232   1.414       .  A
C1231      C1236   1.406       .  A
C1232      C1233   1.402       .  A
C1232      N1237   1.438       .  S
C1233      C1234   1.402       .  A
C1233      H1238   1.084       .  S
C1234      C1239   1.482       .  S
C1234      C1235   1.409       .  A
C1235      C1236   1.406       .  A
C1235      N1240   1.438       .  S
C1236      H1241   1.084       .  S
N1237      H1257   1.046       .  S
N1237      H1258   1.046       .  S
C1239      C1242   1.404       .  A
C1239      C1246   1.406       .  A
N1240      H1255   1.046       .  S
N1240      H1256   1.046       .  S
C1242      C1243   1.411       .  A
C1242      H1247   1.084       .  S
C1243      C1244   1.418       .  A
C1243      N1248   1.438       .  S
C1244      C1245   1.409       .  A
C1245      C1246   1.398       .  A
C1245      H1249   1.083       .  S
C1246      N1250   1.439       .  S
N1248      H1251   1.046       .  S
N1248      H1252   1.046       .  S
N1250      H1253   1.046       .  S
N1250      H1254   1.046       .  S
C1259      C1260   1.414       .  A
C1259      C1264   1.405       .  A
C1260      C1261   1.400       .  A
C1260      N1265   1.438       .  S
C1261      C1262   1.399       .  A
C1261      H1266   1.084       .  S
C1262      C1267   1.471       .  S
C1262      C1263   1.408       .  A
C1263      C1264   1.402       .  A
C1263      N1268   1.438       .  S
C1264      H1269   1.084       .  S
N1265      H1285   1.045       .  S
N1265      H1286   1.046       .  S
C1267      C1270   1.401       .  A
C1267      C1274   1.408       .  A
N1268      H1283   1.046       .  S
N1268      H1284   1.046       .  S
C1270      C1271   1.401       .  A
C1270      H1275   1.084       .  S
C1271      C1272   1.411       .  A
C1271      N1276   1.438       .  S
C1272      C1273   1.402       .  A
C1273      C1274   1.400       .  A
C1273      H1277   1.084       .  S
C1274      N1278   1.438       .  S
N1276      H1279   1.046       .  S
N1276      H1280   1.046       .  S
N1278      H1281   1.046       .  S
N1278      H1282   1.046       .  S
C1287      C1288   1.414       .  A
C1287      C1292   1.406       .  A
C1288      C1289   1.405       .  A
C1288      N1293   1.438       .  S
C1289      C1290   1.402       .  A
C1289      H1294   1.084       .  S
C1290      C1295   1.482       .  S
C1290      C1291   1.409       .  A
C1291      C1292   1.404       .  A
C1291      N1296   1.438       .  S
C1292      H1297   1.084       .  S
N1293      H1313   1.045       .  S
N1293      H1314   1.046       .  S
C1295      C1298   1.403       .  A
C1295      C1302   1.409       .  A
N1296      H1311   1.046       .  S
N1296      H1312   1.046       .  S
C1298      C1299   1.406       .  A
C1298      H1303   1.084       .  S
C1299      C1300   1.412       .  A
C1299      N1304   1.438       .  S
C1300      C1301   1.406       .  A
C1301      C1302   1.405       .  A
C1301      H1305   1.084       .  S
C1302      N1306   1.438       .  S
N1304      H1307   1.046       .  S
N1304      H1308   1.046       .  S
N1306      H1309   1.046       .  S
N1306      H1310   1.046       .  S
C1315      C1316   1.417       .  A
C1315      C1320   1.410       .  A
C1316      C1317   1.396       .  A
C1316      N1321   1.434       .  S
C1317      C1318   1.398       .  A
C1317      H1322   1.084       .  S
C1318      C1323   1.480       .  S
C1318      C1319   1.409       .  A
C1319      C1320   1.406       .  A
C1319      N1324   1.438       .  S
C1320      H1325   1.083       .  S
N1321      H1341   1.046       .  S
N1321      H1342   1.046       .  S
C1323      C1326   1.404       .  A
C1323      C1330   1.409       .  A
N1324      H1339   1.046       .  S
N1324      H1340   1.046       .  S
C1326      C1327   1.406       .  A
C1326      H1331   1.084       .  S
C1327      C1328   1.414       .  A
C1327      N1332   1.439       .  S
C1328      C1329   1.403       .  A
C1329      C1330   1.399       .  A
C1329      H1333   1.084       .  S
C1330      N1334   1.438       .  S
N1332      H1335   1.046       .  S
N1332      H1336   1.045       .  S
N1334      H1337   1.046       .  S
N1334      H1338   1.045       .  S
C1343      C1344   1.414       .  A
C1343      C1348   1.405       .  A
C1344      C1345   1.403       .  A
C1344      N1349   1.437       .  S
C1345      C1346   1.401       .  A
C1345      H1350   1.084       .  S
C1346      C1351   1.475       .  S
C1346      C1347   1.407       .  A
C1347      C1348   1.403       .  A
C1347      N1352   1.438       .  S
C1348      H1353   1.082       .  S
N1349      H1369   1.046       .  S
N1349      H1370   1.046       .  S
C1351      C1354   1.401       .  A
C1351      C1358   1.406       .  A
N1352      H1367   1.046       .  S
N1352      H1368   1.046       .  S
C1354      C1355   1.406       .  A
C1354      H1359   1.084       .  S
C1355      C1356   1.417       .  A
C1355      N1360   1.438       .  S
C1356      C1357   1.406       .  A
C1357      C1358   1.399       .  A
C1357      H1361   1.084       .  S
C1358      N1362   1.438       .  S
N1360      H1363   1.046       .  S
N1360      H1364   1.046       .  S
N1362      H1365   1.045       .  S
N1362      H1366   1.046       .  S
C1371      C1372   1.415       .  A
C1371      C1376   1.404       .  A
C1372      C1373   1.400       .  A
C1372      N1377   1.437       .  S
C1373      C1374   1.397       .  A
C1373      H1378   1.084       .  S
C1374      C1379   1.468       .  S
C1374      C1375   1.406       .  A
C1375      C1376   1.403       .  A
C1375      N1380   1.438       .  S
C1376      H1381   1.084       .  S
N1377      H1397   1.045       .  S
N1377      H1398   1.046       .  S
C1379      C1382   1.401       .  A
C1379      C1386   1.405       .  A
N1380      H1395   1.046       .  S
N1380      H1396   1.045       .  S
C1382      C1383   1.406       .  A
C1382      H1387   1.084       .  S
C1383      C1384   1.412       .  A
C1383      N1388   1.437       .  S
C1384      C1385   1.404       .  A
C1385      C1386   1.398       .  A
C1385      H1389   1.084       .  S
C1386      N1390   1.439       .  S
N1388      H1391   1.046       .  S
N1388      H1392   1.046       .  S
N1390      H1393   1.046       .  S
N1390      H1394   1.045       .  S
C1399      C1400   1.415       .  A
C1399      C1404   1.405       .  A
C1400      C1401   1.409       .  A
C1400      N1405   1.438       .  S
C1401      C1402   1.402       .  A
C1401      H1406   1.084       .  S
C1402      C1407   1.474       .  S
C1402      C1403   1.405       .  A
C1403      C1404   1.400       .  A
C1403      N1408   1.439       .  S
C1404      H1409   1.084       .  S
N1405      H1425   1.045       .  S
N1405      H1426   1.046       .  S
C1407      C1410   1.400       .  A
C1407      C1414   1.407       .  A
N1408      H1423   1.046       .  S
N1408      H1424   1.045       .  S
C1410      C1411   1.405       .  A
C1410      H1415   1.084       .  S
C1411      C1412   1.415       .  A
C1411      N1416   1.437       .  S
C1412      C1413   1.405       .  A
C1413      C1414   1.403       .  A
C1413      H1417   1.084       .  S
C1414      N1418   1.438       .  S
N1416      H1419   1.046       .  S
N1416      H1420   1.046       .  S
N1418      H1421   1.046       .  S
N1418      H1422   1.045       .  S
C1427      C1428   1.421       .  A
C1427      C1432   1.410       .  A
C1428      C1429   1.406       .  A
C1428      N1433   1.438       .  S
C1429      C1430   1.401       .  A
C1429      H1434   1.084       .  S
C1430      C1435   1.479       .  S
C1430      C1431   1.406       .  A
C1431      C1432   1.401       .  A
C1431      N1436   1.439       .  S
C1432      H1437   1.083       .  S
N1433      H1453   1.046       .  S
N1433      H1454   1.046       .  S
C1435      C1438   1.402       .  A
C1435      C1442   1.408       .  A
N1436      H1451   1.046       .  S
N1436      H1452   1.046       .  S
C1438      C1439   1.405       .  A
C1438      H1443   1.084       .  S
C1439      C1440   1.414       .  A
C1439      N1444   1.438       .  S
C1440      C1441   1.403       .  A
C1441      C1442   1.403       .  A
C1441      H1445   1.080       .  S
C1442      N1446   1.438       .  S
N1444      H1447   1.046       .  S
N1444      H1448   1.045       .  S
N1446      H1449   1.046       .  S
N1446      H1450   1.046       .  S
C1455      C1456   1.424       .  A
C1455      C1460   1.409       .  A
C1456      C1457   1.396       .  A
C1456      N1461   1.432       .  S
C1457      C1458   1.397       .  A
C1457      H1462   1.084       .  S
C1458      C1463   1.478       .  S
C1458      C1459   1.406       .  A
C1459      C1460   1.406       .  A
C1459      N1464   1.437       .  S
C1460      H1465   1.082       .  S
N1461      H1481   1.045       .  S
N1461      H1482   1.045       .  S
C1463      C1466   1.401       .  A
C1463      C1470   1.407       .  A
N1464      H1479   1.045       .  S
N1464      H1480   1.046       .  S
C1466      C1467   1.404       .  A
C1466      H1471   1.084       .  S
C1467      C1468   1.415       .  A
C1467      N1472   1.438       .  S
C1468      C1469   1.407       .  A
C1469      C1470   1.402       .  A
C1469      H1473   1.084       .  S
C1470      N1474   1.438       .  S
N1472      H1475   1.046       .  S
N1472      H1476   1.046       .  S
N1474      H1477   1.046       .  S
N1474      H1478   1.045       .  S
C1483      C1484   1.412       .  A
C1483      C1488   1.407       .  A
C1484      C1485   1.405       .  A
C1484      N1489   1.438       .  S
C1485      C1486   1.403       .  A
C1485      H1490   1.084       .  S
C1486      C1491   1.483       .  S
C1486      C1487   1.408       .  A
C1487      C1488   1.407       .  A
C1487      N1492   1.438       .  S
C1488      H1493   1.084       .  S
N1489      H1509   1.046       .  S
N1489      H1510   1.046       .  S
C1491      C1494   1.403       .  A
C1491      C1498   1.407       .  A
N1492      H1507   1.046       .  S
N1492      H1508   1.046       .  S
C1494      C1495   1.410       .  A
C1494      H1499   1.084       .  S
C1495      C1496   1.416       .  A
C1495      N1500   1.438       .  S
C1496      C1497   1.405       .  A
C1497      C1498   1.403       .  A
C1497      H1501   1.084       .  S
C1498      N1502   1.438       .  S
N1500      H1503   1.046       .  S
N1500      H1504   1.045       .  S
N1502      H1505   1.045       .  S
N1502      H1506   1.046       .  S
C1511      C1512   1.415       .  A
C1511      C1516   1.407       .  A
C1512      C1513   1.406       .  A
C1512      N1517   1.438       .  S
C1513      C1514   1.402       .  A
C1513      H1518   1.084       .  S
C1514      C1519   1.481       .  S
C1514      C1515   1.408       .  A
C1515      C1516   1.405       .  A
C1515      N1520   1.438       .  S
C1516      H1521   1.084       .  S
N1517      H1537   1.045       .  S
N1517      H1538   1.046       .  S
C1519      C1522   1.403       .  A
C1519      C1526   1.407       .  A
N1520      H1535   1.045       .  S
N1520      H1536   1.046       .  S
C1522      C1523   1.407       .  A
C1522      H1527   1.084       .  S
C1523      C1524   1.416       .  A
C1523      N1528   1.438       .  S
C1524      C1525   1.407       .  A
C1525      C1526   1.402       .  A
C1525      H1529   1.084       .  S
C1526      N1530   1.438       .  S
N1528      H1531   1.046       .  S
N1528      H1532   1.045       .  S
N1530      H1533   1.046       .  S
N1530      H1534   1.046       .  S
C1539      C1540   1.411       .  A
C1539      C1544   1.402       .  A
C1540      C1541   1.404       .  A
C1540      N1545   1.438       .  S
C1541      C1542   1.404       .  A
C1541      H1546   1.084       .  S
C1542      C1547   1.480       .  S
C1542      C1543   1.410       .  A
C1543      C1544   1.400       .  A
C1543      N1548   1.438       .  S
C1544      H1549   1.084       .  S
N1545      H1565   1.046       .  S
N1545      H1566   1.046       .  S
C1547      C1550   1.400       .  A
C1547      C1554   1.408       .  A
N1548      H1563   1.046       .  S
N1548      H1564   1.046       .  S
C1550      C1551   1.401       .  A
C1550      H1555   1.084       .  S
C1551      C1552   1.420       .  A
C1551      N1556   1.439       .  S
C1552      C1553   1.409       .  A
C1553      C1554   1.404       .  A
C1553      H1557   1.083       .  S
C1554      N1558   1.438       .  S
N1556      H1559   1.046       .  S
N1556      H1560   1.046       .  S
N1558      H1561   1.046       .  S
N1558      H1562   1.046       .  S
