geometry optimzed in LAMMPS
_audit_creation_date              2020-11-30 
_audit_creation_method            'lammps2cif' 
_symmetry_space_group_name_H-M    'P1' 
_symmetry_Int_Tables_number       1 
_symmetry_cell_setting            triclinic 
loop_ 
_symmetry_equiv_pos_as_xyz 
  x,y,z 
_cell_length_a                    30.64618997 
_cell_length_b                    47.4115403431535 
_cell_length_c                    47.32138266111999 
_cell_angle_alpha                 89.94151860671539 
_cell_angle_beta                  90.17929162539295 
_cell_angle_gamma                 89.63478128313675 
loop_ 
_atom_site_label 
_atom_site_type_symbol 
_atom_site_fract_x 
_atom_site_fract_y 
_atom_site_fract_z 
_atom_site_charge 
C1          C  0.50260896  0.48001424  0.02102767     0.01300
C2          C  0.04344945  0.49015690  0.01012544     0.01300
C3          C  0.04372994  0.01140442  0.48810313     0.01300
C4          C  0.00311727  0.02104600  0.47607920     0.01300
C5          C  0.46241246  0.01127593  0.48738719     0.01300
C6          C  0.46213156  0.48965894  0.00872631     0.01300
O7          O  0.44752229  0.09796905  0.27654644    -0.82800
C8          C  0.99452118  0.16427365  0.36941045     0.96600
O9          O  0.46098407  0.15974084  0.35468724    -0.71900
O10         O  0.41731782  0.14705003  0.30834130    -0.75500
Al11       Al  0.44859118  0.12517176  0.33606081     1.49000
C12         C  0.42783302  0.15973258  0.28590215     0.91800
O13         O  0.04926380  0.14493161  0.27335790    -0.81700
O14         O  0.07998976  0.10096420  0.31095256    -0.75300
Al15       Al  0.49830299  0.12184055  0.27903417     1.90100
O16         O  0.06831406  0.15815250  0.31603173    -0.74300
O17         O  0.03715354  0.09368078  0.35867103    -0.74200
O18         O  0.02946471  0.15083538  0.36496734    -0.79900
O19         O  0.46868503  0.10343537  0.36773443    -0.78100
O20         O  0.99870262  0.12435167  0.31702031    -1.14200
O21         O  0.42978394  0.09080506  0.32081420    -0.73400
C22         C  0.42582296  0.08498862  0.29509079     0.97300
C23         C  0.07272843  0.15966086  0.28963341     0.93700
Al24       Al  0.04920358  0.12585037  0.33587029     1.55600
O25         O  0.46390053  0.15488046  0.27413739    -0.78000
C26         C  0.50345119  0.09023296  0.37343543     0.97900
C27         C  0.06901076  0.08543291  0.29054718     0.92800
O28         O  0.03254626  0.08846828  0.27859509    -0.83300
C29         C  0.49791599  0.23281674  0.47169292     0.01300
C30         C  0.45815047  0.24270392  0.48425635     0.01300
C31         C  0.46009224  0.26371810  0.00628318     0.01300
C32         C  0.50158145  0.27374879  0.01640562     0.01300
C33         C  0.04121012  0.26380633  0.00345917     0.01300
C34         C  0.03928007  0.24219274  0.48236790     0.01300
O35         O  0.04819472  0.35095117  0.22420106    -0.82800
C36         C  0.50663782  0.41175548  0.12446971     0.96600
O37         O  0.04083769  0.40482629  0.13782375    -0.71900
O38         O  0.07913532  0.39758182  0.18749422    -0.75500
Al39       Al  0.05136529  0.37266081  0.16154890     1.49000
C40         C  0.06616691  0.41255963  0.20790371     0.91800
O41         O  0.44625658  0.39755096  0.22099183    -0.81700
O42         O  0.41899299  0.35040851  0.18294142    -0.75300
Al43       Al  0.49726088  0.37433721  0.21705152     1.90100
O44         O  0.42800642  0.40879843  0.17790241    -0.74300
O45         O  0.46358730  0.34435773  0.13472306    -0.74200
O46         O  0.47039333  0.40124359  0.13077213    -0.79900
O47         O  0.03451406  0.34836641  0.13160571    -0.78100
O48         O  0.49942197  0.37426295  0.17880895    -1.14200
O49         O  0.06983797  0.33964006  0.18186253    -0.73400
C50         C  0.07103646  0.33561522  0.20823465     0.97300
C51         C  0.42447847  0.41257476  0.20409768     0.93700
Al52       Al  0.44976069  0.37599908  0.15866700     1.55600
O53         O  0.03018273  0.40789025  0.21977199    -0.78000
C54         C  0.99918738  0.33841405  0.12256363     0.97900
C55         C  0.42885211  0.33619285  0.20478249     0.92800
O56         O  0.46349514  0.34095177  0.21841341    -0.83300
C57         C  0.24445456  0.00881308  0.28223668     0.01300
C58         C  0.20453009  0.00219832  0.26713553     0.01300
C59         C  0.20687254  0.48421399  0.24297613     0.01300
C60         C  0.24774386  0.47729917  0.23011927     0.01300
C61         C  0.28727667  0.48792698  0.24266076     0.01300
C62         C  0.28559227  0.00569307  0.26747229     0.01300
O63         O  0.19928484  0.35652291  0.02302914    -0.82800
C64         C  0.24634900  0.41193917  0.12359326     0.96600
O65         O  0.21184964  0.40427871  0.11120672    -0.71900
O66         O  0.17301948  0.40072905  0.06129011    -0.75500
Al67       Al  0.20024993  0.37350662  0.08609944     1.49000
C68         C  0.18679757  0.41654461  0.04156363     0.91800
O69         O  0.30532670  0.39593217  0.02522290    -0.81700
O70         O  0.33007912  0.35003231  0.06204287    -0.75300
Al71       Al  0.25217612  0.37611191  0.03028409     1.90100
O72         O  0.32270989  0.40866649  0.06786325    -0.74300
O73         O  0.28907851  0.34419785  0.11059971    -0.74200
O74         O  0.28276601  0.40181392  0.11624988    -0.79900
O75         O  0.21791491  0.34664032  0.11407872    -0.78100
O76         O  0.25139342  0.37528435  0.06834585    -1.14200
O77         O  0.18048673  0.34180105  0.06469495    -0.73400
C78         C  0.17727811  0.34037710  0.03822988     0.97300
C79         C  0.32697330  0.41123652  0.04155702     0.93700
Al80       Al  0.30177391  0.37612221  0.08738125     1.55600
O81         O  0.22257224  0.41139648  0.02928930    -0.78000
C82         C  0.25392345  0.33603117  0.12158517     0.97900
C83         C  0.31697267  0.33515922  0.04135922     0.92800
O84         O  0.28169301  0.34090769  0.02867694    -0.83300
C85         C  0.25028400  0.23244542  0.27254980     0.01300
C86         C  0.29100209  0.24143921  0.26019763     0.01300
C87         C  0.28906015  0.26066739  0.23697473     0.01300
C88         C  0.24809304  0.26675516  0.22343176     0.01300
C89         C  0.20871629  0.25359314  0.23299748     0.01300
C90         C  0.21261311  0.23170808  0.25425832     0.01300
O91         O  0.30386908  0.10527621  0.47035578    -0.82800
C92         C  0.25067699  0.16389266  0.37319062     0.96600
O93         O  0.28470539  0.16014259  0.38769018    -0.71900
O94         O  0.32939290  0.15338982  0.43435232    -0.75500
Al95       Al  0.30131892  0.12761496  0.40858488     1.49000
C96         C  0.31604907  0.16803746  0.45504119     0.91800
O97         O  0.19836228  0.14868748  0.46926645    -0.81700
O98         O  0.17195288  0.10066910  0.43557046    -0.75300
Al99       Al  0.25109467  0.12689202  0.46550796     1.90100
O100        O  0.17899416  0.15803030  0.42562450    -0.74300
O101        O  0.21686265  0.09173694  0.38965600    -0.74200
O102        O  0.21808812  0.14828453  0.37736126    -0.79900
O103        O  0.28366620  0.10231596  0.37822878    -0.78100
O104        O  0.25117573  0.12642380  0.42758739    -1.14200
O105        O  0.32438098  0.09515273  0.42721224    -0.73400
C106        C  0.32691556  0.09097084  0.45348958     0.97300
C107        C  0.17587663  0.16269547  0.45169343     0.93700
Al108      Al  0.20087982  0.12483097  0.40874138     1.55600
O109        O  0.28115197  0.16181264  0.46747979    -0.78000
C110        C  0.25029073  0.08724454  0.37480543     0.97900
C111        C  0.18515087  0.08614095  0.45642639     0.92800
O112        O  0.22079233  0.09194605  0.46837301    -0.83300
C113        C  0.28788960  0.19669219  0.33835900    -0.02800
C114        C  0.24912461  0.18651729  0.35098711     0.06800
C115        C  0.20924308  0.19987900  0.34292626    -0.03000
C116        C  0.20839302  0.21881096  0.31956979    -0.03000
C117        C  0.24753086  0.22350755  0.30389281     0.07000
C118        C  0.28559923  0.21958636  0.31978343    -0.03200
Br119      Br  0.30326314  0.25343918  0.33841984    -0.01700
Br120      Br  0.34535539  0.18241599  0.34663813    -0.01800
Br121      Br  0.15480792  0.23912152  0.31203195    -0.01700
Br122      Br  0.15575852  0.19298910  0.36335971    -0.01700
C123        C  0.24558045  0.27140955  0.16997743    -0.02800
C124        C  0.24765837  0.28445060  0.19688588     0.06800
C125        C  0.25412554  0.31391582  0.19773081    -0.03000
C126        C  0.26348417  0.32892683  0.17297831    -0.03000
C127        C  0.25521740  0.31695535  0.14651196     0.07000
C128        C  0.24491705  0.28808861  0.14517643    -0.03200
Br129      Br  0.23019120  0.27116021  0.10986538    -0.01700
Br130      Br  0.24525395  0.23080511  0.16640633    -0.01800
Br131      Br  0.29048272  0.36531385  0.17536360    -0.01700
Br132      Br  0.24375829  0.33548411  0.23090720    -0.01700
C133        C  0.22163310  0.42076856  0.17312542    -0.02800
C134        C  0.24381422  0.43053378  0.14917507     0.06800
C135        C  0.26755157  0.45581631  0.15169882    -0.03000
C136        C  0.26600153  0.47183828  0.17704791    -0.03000
C137        C  0.24903715  0.46005580  0.20237190     0.07000
C138        C  0.23019716  0.43278908  0.19975709    -0.03200
Br139      Br  0.22556493  0.40744711  0.23066311    -0.01700
Br140      Br  0.18179209  0.38934113  0.17035994    -0.01800
Br141      Br  0.28181683  0.01103698  0.17510719    -0.01700
Br142      Br  0.30106300  0.46914994  0.12037475    -0.01700
C143        C  0.28573928  0.04632349  0.34839565    -0.02800
C144        C  0.24886288  0.06389665  0.35354025     0.06800
C145        C  0.20865713  0.05558745  0.34118147    -0.03000
C146        C  0.20642919  0.03036254  0.32591650    -0.03000
C147        C  0.24417115  0.02102959  0.31243268     0.07000
C148        C  0.28166387  0.02322120  0.32966499    -0.03200
Br149      Br  0.31226075  0.98912314  0.33880180    -0.01700
Br150      Br  0.34077051  0.05216954  0.36703355    -0.01800
Br151      Br  0.18326809  0.00126917  0.34954776    -0.01700
Br152      Br  0.15422947  0.07454684  0.34786807    -0.01700
C153        C  0.15982308  0.29401029  0.24888658    -0.02800
C154        C  0.16656316  0.27098424  0.23002667     0.06800
C155        C  0.13526968  0.26829108  0.20771034    -0.03000
C156        C  0.09859037  0.28620450  0.20648876    -0.03000
C157        C  0.09918648  0.31229609  0.21995566     0.07000
C158        C  0.12934669  0.31576672  0.24223112    -0.03200
Br159      Br  0.13145712  0.35052792  0.26265825    -0.01700
Br160      Br  0.19449907  0.29768471  0.28276442    -0.01800
Br161      Br  0.04477813  0.27368720  0.18968177    -0.01700
Br162      Br  0.14345857  0.24761859  0.17366215    -0.01700
C163        C  0.38572293  0.29228888  0.19662066    -0.02800
C164        C  0.39812544  0.31434436  0.21467981     0.06800
C165        C  0.37848639  0.31653916  0.24144860    -0.03000
C166        C  0.34045855  0.30104045  0.24735332    -0.03000
C167        C  0.32859472  0.27803356  0.22980961     0.07000
C168        C  0.35392801  0.27281849  0.20533420    -0.03200
Br169      Br  0.34964828  0.23825572  0.18480841    -0.01700
Br170      Br  0.41461684  0.28756196  0.16069115    -0.01800
Br171      Br  0.30687449  0.31101171  0.28064426    -0.01700
Br172      Br  0.40570670  0.33847237  0.27104487    -0.01700
C173        C  0.35715576  0.42394494  0.23153583    -0.02800
C174        C  0.39249937  0.43344509  0.21541052     0.06800
C175        C  0.39827647  0.46281241  0.21234037    -0.03000
C176        C  0.36441885  0.48186650  0.22016028    -0.03000
C177        C  0.32783376  0.47155907  0.23540422     0.07000
C178        C  0.32845124  0.44312803  0.24401413    -0.03200
Br179      Br  0.29693637  0.43184208  0.27746838    -0.01700
Br180      Br  0.34552390  0.38478830  0.23589772    -0.01800
Br181      Br  0.37206260  0.52153291  0.21264838    -0.01700
Br182      Br  0.45504274  0.47675844  0.20248086    -0.01700
C183        C  0.11181336  0.43341076  0.24598188    -0.02800
C184        C  0.09511480  0.43494558  0.21836013     0.06800
C185        C  0.11178594  0.45501339  0.19940808    -0.03000
C186        C  0.14613663  0.47270958  0.20772266    -0.03000
C187        C  0.16658878  0.46875757  0.23440598     0.07000
C188        C  0.15019758  0.44786701  0.25292323    -0.03200
Br189      Br  0.18328880  0.43560269  0.28615845    -0.01700
Br190      Br  0.08150069  0.41252120  0.27472941    -0.01800
Br191      Br  0.16588488  0.00015427  0.18079828    -0.01700
Br192      Br  0.08670397  0.45876202  0.16206613    -0.01700
C193        C  0.11258456  0.17719854  0.48163690    -0.02800
C194        C  0.14446076  0.18424894  0.46162812     0.06800
C195        C  0.14600395  0.21191709  0.45090965    -0.03000
C196        C  0.11335560  0.23178064  0.45810443    -0.03000
C197        C  0.07851506  0.22388658  0.47621499     0.07000
C198        C  0.08028326  0.19690782  0.48913578    -0.03200
Br199      Br  0.04378405  0.18855659  0.52121559    -0.01700
Br200      Br  0.11304645  0.14056198  0.49926491    -0.01800
Br201      Br  0.12051620  0.26959343  0.44439219    -0.01700
Br202      Br  0.19536398  0.22311569  0.42818839    -0.01700
C203        C  0.35909035  0.19364724  0.49242646    -0.02800
C204        C  0.34283612  0.19229911  0.46473058     0.06800
C205        C  0.35714262  0.21215899  0.44500943    -0.03000
C206        C  0.39371883  0.22919437  0.45066435    -0.03000
C207        C  0.41504312  0.22795640  0.47760977     0.07000
C208        C  0.39606793  0.21021725  0.49851412    -0.03200
Br209      Br  0.42625997  0.20191405  0.53319674    -0.01700
Br210      Br  0.33085169  0.17276762  0.52216625    -0.01800
Br211      Br  0.41402665  0.25097158  0.41915686    -0.01700
Br212      Br  0.32252274  0.21797970  0.41139703    -0.01700
C213        C  0.08253744  0.30890469  0.99727751    -0.02800
C214        C  0.08227256  0.28096307  0.00803978     0.06800
C215        C  0.12044459  0.27152088  0.02279974    -0.03000
C216        C  0.15361008  0.29088915  0.02961745    -0.03000
C217        C  0.14739746  0.31975991  0.02496199     0.07000
C218        C  0.11383554  0.32842491  0.00661036    -0.03200
Br219      Br  0.11211602  0.36650643  0.49289599    -0.01700
Br220      Br  0.04424216  0.31947005  0.46652916    -0.01800
Br221      Br  0.21120360  0.27801071  0.04012700    -0.01700
Br222      Br  0.13155241  0.23315991  0.03376978    -0.01700
C223        C  0.39575542  0.29537734  0.49533222    -0.02800
C224        C  0.41834925  0.27830174  0.01533676     0.06800
C225        C  0.40186655  0.27725972  0.04347989    -0.03000
C226        C  0.36563315  0.29392334  0.05118020    -0.03000
C227        C  0.34527834  0.31179462  0.03139029     0.07000
C228        C  0.35776572  0.31030521  0.00286580    -0.03200
Br229      Br  0.32430075  0.32951518  0.47387446    -0.01700
Br230      Br  0.42209189  0.30499586  0.45970949    -0.01800
Br231      Br  0.34223932  0.29134711  0.08896423    -0.01700
Br232      Br  0.42914802  0.25611291  0.07352941    -0.01700
C233        C  0.98479700  0.31937585  0.04488478    -0.02800
C234        C  0.00433257  0.29219340  0.04288201     0.06800
C235        C  0.52438659  0.28141996  0.06772978    -0.03000
C236        C  0.52614656  0.29758626  0.09267591    -0.03000
C237        C  0.99983402  0.32183516  0.09570542     0.07000
C238        C  0.97877655  0.33257645  0.07139301    -0.03200
Br239      Br  0.94420695  0.36677297  0.07359394    -0.01700
Br240      Br  0.97079826  0.34102335  0.01215282    -0.01800
Br241      Br  0.56621231  0.28648695  0.12182042    -0.01700
Br242      Br  0.54110534  0.24245082  0.07061072    -0.01700
C243        C  0.15261485  0.16772167  0.28448890    -0.02800
C244        C  0.10942660  0.17605580  0.27793386     0.06800
C245        C  0.10303871  0.19666100  0.25681800    -0.03000
C246        C  0.13951846  0.20746201  0.24254637    -0.03000
C247        C  0.18008006  0.20719127  0.25654741     0.07000
C248        C  0.18807451  0.18208552  0.27246442    -0.03200
Br249      Br  0.24463924  0.16432707  0.27603712    -0.01700
Br250      Br  0.16437780  0.13678074  0.30982951    -0.01800
Br251      Br  0.14337767  0.18887048  0.20672500    -0.01700
Br252      Br  0.04564098  0.20582515  0.24302486    -0.01700
C253        C  0.36926358  0.22954111  0.28030213    -0.02800
C254        C  0.33176228  0.22277708  0.26346254     0.06800
C255        C  0.33324381  0.19657293  0.24869980    -0.03000
C256        C  0.36628358  0.17635754  0.25451155    -0.03000
C257        C  0.39837062  0.18197904  0.27491557     0.07000
C258        C  0.40139020  0.20897572  0.28628610    -0.03200
Br259      Br  0.45131017  0.21741503  0.30996746    -0.01700
Br260      Br  0.38261158  0.26598613  0.29477586    -0.01800
Br261      Br  0.36911373  0.14136832  0.23379536    -0.01700
Br262      Br  0.29169626  0.18827085  0.21911483    -0.01700
C263        C  0.40160416  0.03608587  0.28349062    -0.02800
C264        C  0.39192619  0.06472324  0.28691378     0.06800
C265        C  0.34855641  0.07382218  0.28612669    -0.03000
C266        C  0.31544316  0.05528298  0.27776324    -0.03000
C267        C  0.32359237  0.02551136  0.27498491     0.07000
C268        C  0.36762331  0.01623211  0.28052324    -0.03200
Br269      Br  0.38436349  0.47779440  0.28887020    -0.01700
Br270      Br  0.46197926  0.02424892  0.28360364    -0.01800
Br271      Br  0.25950828  0.07305723  0.27230238     0.00700
Br272      Br  0.33392926  0.11167577  0.29859095    -0.01700
C273        C  0.12829821  0.01562495  0.28933053    -0.02800
C274        C  0.16364120  0.02080669  0.27022140     0.06800
C275        C  0.16040321  0.04579531  0.25351850    -0.03000
C276        C  0.12808368  0.06644931  0.25916400    -0.03000
C277        C  0.09896915  0.06273669  0.28165234     0.07000
C278        C  0.09883743  0.03730539  0.29640822    -0.03200
Br279      Br  0.05852228  0.03273629  0.32749337    -0.01700
Br280      Br  0.11225965  0.47975401  0.30455633    -0.01800
Br281      Br  0.12384982  0.10026128  0.23655719    -0.01700
Br282      Br  0.19822799  0.05187556  0.22157145    -0.01700
C283        C  0.97339385  0.17264846  0.41923613    -0.02800
C284        C  0.99203387  0.18299275  0.39425593     0.06800
C285        C  0.51197375  0.20954559  0.39439426    -0.03000
C286        C  0.51137879  0.22612504  0.41913973    -0.03000
C287        C  0.49700057  0.21464578  0.44526274     0.07000
C288        C  0.97981862  0.18688301  0.44490677    -0.03200
Br289      Br  0.96843641  0.16567117  0.47838020    -0.01700
Br290      Br  0.93855225  0.13877305  0.41862775    -0.01800
Br291      Br  0.52273192  0.26582341  0.41538176    -0.01700
Br292      Br  0.53807432  0.22376685  0.36029524    -0.01700
C293        C  0.38731194  0.02116027  0.46329188    -0.02800
C294        C  0.42224597  0.02913448  0.48148048     0.06800
C295        C  0.42041789  0.05628699  0.49390049    -0.03000
C296        C  0.38933546  0.07635638  0.48495725    -0.03000
C297        C  0.35770784  0.06927485  0.46462453     0.07000
C298        C  0.35495400  0.04113585  0.45542561    -0.03200
Br299      Br  0.30385310  0.02952722  0.43445539    -0.01700
Br300      Br  0.37981058  0.48319870  0.95006955    -0.01800
Br301      Br  0.39056867  0.11359268  0.50085318    -0.01700
Br302      Br  0.45620573  0.06484543  0.52643669    -0.01700
C303        C  0.14087087  0.04321301  0.44675263    -0.02800
C304        C  0.15756421  0.06232215  0.46647596     0.06800
C305        C  0.14336541  0.06043994  0.49456717    -0.03000
C306        C  0.10656068  0.04393382  0.50132599    -0.03000
C307        C  0.08618692  0.02641793  0.48073182     0.07000
C308        C  0.10537170  0.02566761  0.45328978    -0.03200
Br309      Br  0.08390284  0.50320005  0.42262343    -0.01700
Br310      Br  0.17048711  0.03922061  0.41139224    -0.01800
Br311      Br  0.07865199  0.05175347  0.53676334    -0.01700
Br312      Br  0.17403335  0.08050419  0.52390416    -0.01700
C313        C  0.48723877  0.02848806  0.42361948    -0.02800
C314        C  0.50242287  0.03965096  0.44975677     0.06800
C315        C  0.01834350  0.06776610  0.44961527    -0.03000
C316        C  0.02296075  0.08273404  0.42407777    -0.03000
C317        C  0.50497404  0.07213850  0.39893723     0.07000
C318        C  0.48570318  0.04536435  0.39903062    -0.03200
Br319      Br  0.45852095  0.03140637  0.36506633    -0.01700
Br320      Br  0.47595217  0.98882974  0.41936123    -0.01800
Br321      Br  0.05425506  0.11804548  0.42366535    -0.01700
Br322      Br  0.03092043  0.08807508  0.48346662    -0.01700
C323        C  0.38994825  0.42468193  0.01029880    -0.02800
C324        C  0.35734557  0.43236573  0.02968228     0.06800
C325        C  0.35189123  0.46093638  0.03626097    -0.03000
C326        C  0.38477739  0.48057171  0.02968556    -0.03000
C327        C  0.42191524  0.47192776  0.01369166     0.07000
C328        C  0.42123214  0.44452051  0.00172912    -0.03200
Br329      Br  0.45871131  0.43532694  0.97027761    -0.01700
Br330      Br  0.38992324  0.38777128  0.99367737    -0.01800
Br331      Br  0.37463808  0.01853997  0.04192878    -0.01700
Br332      Br  0.29514757  0.47343799  0.04888655    -0.01700
C333        C  0.10720056  0.45834057  0.99756725    -0.02800
C334        C  0.08589182  0.47532053  0.01816763     0.06800
C335        C  0.10403697  0.47562031  0.04603778    -0.03000
C336        C  0.13982314  0.45806620  0.05294808    -0.03000
C337        C  0.15894181  0.44057589  0.03246107     0.07000
C338        C  0.14545294  0.44310188  0.00418880    -0.03200
Br339      Br  0.17812196  0.42495892  0.47434958    -0.01700
Br340      Br  0.07868980  0.44886038  0.46258475    -0.01800
Br341      Br  0.16443777  0.45868165  0.09064404    -0.01700
Br342      Br  0.08012675  0.49713236  0.07679253    -0.01700
C343        C  0.02801996  0.42009098  0.07438113    -0.02800
C344        C  0.50867518  0.43033700  0.09922452     0.06800
C345        C  0.48540961  0.45595256  0.09811185    -0.03000
C346        C  0.48489358  0.47233381  0.07317686    -0.03000
C347        C  0.50167078  0.46140264  0.04743073     0.07000
C348        C  0.02068787  0.43398911  0.04842406    -0.03200
Br349      Br  0.03214325  0.41271226  0.01520552    -0.01700
Br350      Br  0.06347336  0.38618717  0.07552011    -0.01800
Br351      Br  0.46891476  0.51142394  0.07659336    -0.01700
Br352      Br  0.45560207  0.46931204  0.13110859    -0.01700
C353        C  0.50260781  0.48001653  0.52102895     0.01300
C354        C  0.04344836  0.49015907  0.51012641     0.01300
C355        C  0.04372939  0.01140608  0.98810384     0.01300
C356        C  0.00311684  0.02104733  0.97607945     0.01300
C357        C  0.46241185  0.01127715  0.98738697     0.01300
C358        C  0.46213067  0.48966106  0.50872706     0.01300
O359        O  0.44752228  0.09797018  0.77654557    -0.82800
C360        C  0.99451911  0.16427441  0.86940995     0.96600
O361        O  0.46098242  0.15974156  0.85468700    -0.71900
O362        O  0.41731682  0.14705060  0.80834094    -0.75500
Al363      Al  0.44859027  0.12517240  0.83606028     1.49000
C364        C  0.42783202  0.15973354  0.78590204     0.91800
O365        O  0.04926262  0.14493357  0.77335799    -0.81700
O366        O  0.07998949  0.10096618  0.81095226    -0.75300
Al367      Al  0.49830248  0.12184223  0.77903374     1.90100
O368        O  0.06831165  0.15815429  0.81603209    -0.74300
O369        O  0.03715315  0.09368181  0.85867070    -0.74200
O370        O  0.02946276  0.15083629  0.86496710    -0.79900
O371        O  0.46868432  0.10343600  0.86773383    -0.78100
O372        O  0.99870168  0.12435247  0.81701994    -1.14200
O373        O  0.42978373  0.09080553  0.82081320    -0.73400
C374        C  0.42582306  0.08498930  0.79508968     0.97300
C375        C  0.07272635  0.15966303  0.78963389     0.93700
Al376      Al  0.04920236  0.12585171  0.83587014     1.55600
O377        O  0.46389956  0.15488180  0.77413724    -0.78000
C378        C  0.50345081  0.09023402  0.87343502     0.97900
C379        C  0.06901114  0.08543509  0.79054658     0.92800
O380        O  0.03254660  0.08847007  0.77859446    -0.83300
C381        C  0.49791554  0.23281630  0.97169349     0.01300
C382        C  0.45815025  0.24270300  0.98425749     0.01300
C383        C  0.46009223  0.26371944  0.50628165     0.01300
C384        C  0.50158137  0.27374989  0.51640459     0.01300
C385        C  0.04121051  0.26380713  0.50345896     0.01300
C386        C  0.03927932  0.24219227  0.98236782     0.01300
O387        O  0.04819379  0.35095121  0.72420068    -0.82800
C388        C  0.50663726  0.41175624  0.62447023     0.96600
O389        O  0.04083751  0.40482731  0.63782421    -0.71900
O390        O  0.07913552  0.39758154  0.68749452    -0.75500
Al391      Al  0.05136470  0.37266126  0.66154880     1.49000
C392        C  0.06616727  0.41255942  0.70790399     0.91800
O393        O  0.44625659  0.39755164  0.72099193    -0.81700
O394        O  0.41899223  0.35040903  0.68294186    -0.75300
Al395      Al  0.49726038  0.37433753  0.71705173     1.90100
O396        O  0.42800619  0.40879887  0.67790244    -0.74300
O397        O  0.46358668  0.34435774  0.63472323    -0.74200
O398        O  0.47039287  0.40124381  0.63077216    -0.79900
O399        O  0.03451292  0.34836753  0.63160513    -0.78100
O400        O  0.49942132  0.37426323  0.67880912    -1.14200
O401        O  0.06983648  0.33964005  0.68186196    -0.73400
C402        C  0.07103509  0.33561516  0.70823418     0.97300
C403        C  0.42447864  0.41257546  0.70409770     0.93700
Al404      Al  0.44976011  0.37599936  0.65866716     1.55600
O405        O  0.03018279  0.40789053  0.71977191    -0.78000
C406        C  0.99918645  0.33841464  0.62256347     0.97900
C407        C  0.42885111  0.33619371  0.70478317     0.92800
O408        O  0.46349431  0.34095247  0.71841393    -0.83300
C409        C  0.24445363  0.00881480  0.78223507     0.01300
C410        C  0.20452912  0.00220006  0.76713383     0.01300
C411        C  0.20687323  0.48421253  0.74297810     0.01300
C412        C  0.24774443  0.47729886  0.73012055     0.01300
C413        C  0.28727710  0.48792688  0.74266196     0.01300
C414        C  0.28559156  0.00569391  0.76747107     0.01300
O415        O  0.19928423  0.35652431  0.52302997    -0.82800
C416        C  0.24634904  0.41194018  0.62359406     0.96600
O417        O  0.21184960  0.40427935  0.61120781    -0.71900
O418        O  0.17301801  0.40072986  0.56129193    -0.75500
Al419      Al  0.20025023  0.37350737  0.58610049     1.49000
C420        C  0.18679530  0.41654594  0.54156563     0.91800
O421        O  0.30532446  0.39593552  0.52522329    -0.81700
O422        O  0.33008016  0.35003587  0.56204197    -0.75300
Al423      Al  0.25217496  0.37611415  0.53028461     1.90100
O424        O  0.32270795  0.40866958  0.56786367    -0.74300
O425        O  0.28908077  0.34419941  0.61059924    -0.74200
O426        O  0.28276603  0.40181533  0.61625041    -0.79900
O427        O  0.21791722  0.34664083  0.61407923    -0.78100
O428        O  0.25139320  0.37528601  0.56834633    -1.14200
O429        O  0.18048715  0.34180188  0.56469579    -0.73400
C430        C  0.17727786  0.34037828  0.53823075     0.97300
C431        C  0.32697089  0.41123988  0.54155740     0.93700
Al432      Al  0.30177416  0.37612454  0.58738119     1.55600
O433        O  0.22256972  0.41139825  0.52929083    -0.78000
C434        C  0.25392635  0.33603196  0.62158502     0.97900
C435        C  0.31697409  0.33516261  0.54135831     0.92800
O436        O  0.28169374  0.34091040  0.52867649    -0.83300
C437        C  0.25028293  0.23244614  0.77255002     0.01300
C438        C  0.29100117  0.24143977  0.76019813     0.01300
C439        C  0.28906013  0.26066807  0.73697544     0.01300
C440        C  0.24809364  0.26675611  0.72343199     0.01300
C441        C  0.20871652  0.25359437  0.73299748     0.01300
C442        C  0.21261224  0.23170929  0.75425839     0.01300
O443        O  0.30386901  0.10527630  0.97035425    -0.82800
C444        C  0.25067541  0.16389378  0.87319083     0.96600
O445        O  0.28470353  0.16014413  0.88769067    -0.71900
O446        O  0.32939239  0.15339004  0.93435206    -0.75500
Al447      Al  0.30131768  0.12761602  0.90858408     1.49000
C448        C  0.31604865  0.16803743  0.95504112     0.91800
O449        O  0.19836216  0.14868733  0.96926645    -0.81700
O450        O  0.17195233  0.10066947  0.93557030    -0.75300
Al451      Al  0.25109451  0.12689203  0.96550736     1.90100
O452        O  0.17899352  0.15803070  0.92562466    -0.74300
O453        O  0.21686186  0.09173763  0.88965562    -0.74200
O454        O  0.21808675  0.14828528  0.87736107    -0.79900
O455        O  0.28366442  0.10231810  0.87822734    -0.78100
O456        O  0.25117493  0.12642434  0.92758689    -1.14200
O457        O  0.32437990  0.09515330  0.92721034    -0.73400
C458        C  0.32691513  0.09097113  0.95348752     0.97300
C459        C  0.17587643  0.16269560  0.95169365     0.93700
Al460      Al  0.20087883  0.12483153  0.90874118     1.55600
O461        O  0.28115143  0.16181264  0.96747952    -0.78000
C462        C  0.25028895  0.08724614  0.87480433     0.97900
C463        C  0.18515085  0.08614110  0.95642584     0.92800
O464        O  0.22079272  0.09194603  0.96837214    -0.83300
C465        C  0.28788819  0.19669224  0.83835862    -0.02800
C466        C  0.24912315  0.18651819  0.85098730     0.06800
C467        C  0.20924199  0.19988050  0.84292696    -0.03000
C468        C  0.20839186  0.21881205  0.81957016    -0.03000
C469        C  0.24752967  0.22350815  0.80389296     0.07000
C470        C  0.28559806  0.21958675  0.81978356    -0.03200
Br471      Br  0.30325979  0.25343900  0.83842196    -0.01700
Br472      Br  0.34535361  0.18241532  0.84663758    -0.01800
Br473      Br  0.15480703  0.23912283  0.81203245    -0.01700
Br474      Br  0.15575849  0.19299234  0.86336205    -0.01700
C475        C  0.24558751  0.27140983  0.66997741    -0.02800
C476        C  0.24766038  0.28445130  0.69688584     0.06800
C477        C  0.25412516  0.31391676  0.69773075    -0.03000
C478        C  0.26348401  0.32892804  0.67297841    -0.03000
C479        C  0.25522163  0.31695597  0.64651181     0.07000
C480        C  0.24492680  0.28808840  0.64517600    -0.03200
Br481      Br  0.23021471  0.27115785  0.60986363    -0.01700
Br482      Br  0.24526205  0.23080538  0.66640712    -0.01800
Br483      Br  0.29047965  0.36531583  0.67536395    -0.01700
Br484      Br  0.24375590  0.33548463  0.73090710    -0.01700
C485        C  0.22163224  0.42076977  0.67312590    -0.02800
C486        C  0.24381421  0.43053475  0.64917582     0.06800
C487        C  0.26755286  0.45581676  0.65169999    -0.03000
C488        C  0.26600246  0.47183867  0.67704910    -0.03000
C489        C  0.24903770  0.46005603  0.70237290     0.07000
C490        C  0.23019723  0.43278956  0.69975770    -0.03200
Br491      Br  0.22556691  0.40744675  0.73066304    -0.01700
Br492      Br  0.18178992  0.38934305  0.67036020    -0.01800
Br493      Br  0.28181606  0.01103688  0.67510683    -0.01700
Br494      Br  0.30106723  0.46914952  0.62037685    -0.01700
C495        C  0.28573844  0.04632661  0.84839302    -0.02800
C496        C  0.24886164  0.06389883  0.85353862     0.06800
C497        C  0.20865546  0.05558901  0.84118057    -0.03000
C498        C  0.20642813  0.03036448  0.82591485    -0.03000
C499        C  0.24417016  0.02103208  0.81243075     0.07000
C500        C  0.28166306  0.02322405  0.82966285    -0.03200
Br501      Br  0.31225821  0.98912592  0.83880167    -0.01700
Br502      Br  0.34077115  0.05217418  0.86702876    -0.01800
Br503      Br  0.18326595  0.00127020  0.84954453    -0.01700
Br504      Br  0.15422741  0.07454738  0.84786874    -0.01700
C505        C  0.15982204  0.29401092  0.74888642    -0.02800
C506        C  0.16656376  0.27098544  0.73002611     0.06800
C507        C  0.13527208  0.26829240  0.70770888    -0.03000
C508        C  0.09859183  0.28620498  0.70648711    -0.03000
C509        C  0.09918568  0.31229614  0.71995491     0.07000
C510        C  0.12934504  0.31576695  0.74223090    -0.03200
Br511      Br  0.13145423  0.35052804  0.76265826    -0.01700
Br512      Br  0.19449721  0.29768559  0.78276461    -0.01800
Br513      Br  0.04478119  0.27368635  0.68967919    -0.01700
Br514      Br  0.14346584  0.24762152  0.67366014    -0.01700
C515        C  0.38572356  0.29228913  0.69662238    -0.02800
C516        C  0.39812452  0.31434546  0.71468087     0.06800
C517        C  0.37848493  0.31654070  0.74144949    -0.03000
C518        C  0.34045744  0.30104165  0.74735422    -0.03000
C519        C  0.32859497  0.27803411  0.72981096     0.07000
C520        C  0.35392984  0.27281829  0.70533645    -0.03200
Br521      Br  0.34965569  0.23825347  0.68481366    -0.01700
Br522      Br  0.41461789  0.28756177  0.66069310    -0.01800
Br523      Br  0.30687241  0.31101308  0.78064470    -0.01700
Br524      Br  0.40570382  0.33847501  0.77104550    -0.01700
C525        C  0.35715565  0.42394528  0.73153528    -0.02800
C526        C  0.39249958  0.43344573  0.71541052     0.06800
C527        C  0.39827706  0.46281311  0.71234128    -0.03000
C528        C  0.36441922  0.48186704  0.72016120    -0.03000
C529        C  0.32783420  0.47155929  0.73540501     0.07000
C530        C  0.32845168  0.44312811  0.74401435    -0.03200
Br531      Br  0.29693782  0.43184148  0.77746876    -0.01700
Br532      Br  0.34552246  0.38478868  0.73589524    -0.01800
Br533      Br  0.37206260  0.52153354  0.71264963    -0.01700
Br534      Br  0.45504401  0.47675931  0.70248368    -0.01700
C535        C  0.11181318  0.43340987  0.74598273    -0.02800
C536        C  0.09511540  0.43494495  0.71836081     0.06800
C537        C  0.11178705  0.45501283  0.69940911    -0.03000
C538        C  0.14613750  0.47270889  0.70772423    -0.03000
C539        C  0.16658946  0.46875630  0.73440756     0.07000
C540        C  0.15019778  0.44786549  0.75292440    -0.03200
Br541      Br  0.18328915  0.43559927  0.78615883    -0.01700
Br542      Br  0.08149866  0.41252122  0.77473012    -0.01800
Br543      Br  0.16588391  0.00015421  0.68079661    -0.01700
Br544      Br  0.08670589  0.45876176  0.66206697    -0.01700
C545        C  0.11258457  0.17719843  0.98163731    -0.02800
C546        C  0.14446084  0.18424899  0.96162867     0.06800
C547        C  0.14600405  0.21191717  0.95091033    -0.03000
C548        C  0.11335513  0.23178045  0.95810463    -0.03000
C549        C  0.07851415  0.22388611  0.97621473     0.07000
C550        C  0.08028240  0.19690735  0.98913556    -0.03200
Br551      Br  0.04378194  0.18855571  0.02121466    -0.01700
Br552      Br  0.11304844  0.14056246  0.99926663    -0.01800
Br553      Br  0.12051550  0.26959320  0.94439219    -0.01700
Br554      Br  0.19536533  0.22311628  0.92819045    -0.01700
C555        C  0.35908971  0.19364658  0.99242692    -0.02800
C556        C  0.34283579  0.19229880  0.96473093     0.06800
C557        C  0.35714239  0.21215888  0.94501006    -0.03000
C558        C  0.39371858  0.22919412  0.95066527    -0.03000
C559        C  0.41504270  0.22795580  0.97761075     0.07000
C560        C  0.39606714  0.21021661  0.99851493    -0.03200
Br561      Br  0.42625851  0.20191343  0.03319784    -0.01700
Br562      Br  0.33085111  0.17276624  0.02216626    -0.01800
Br563      Br  0.41402643  0.25097158  0.91915798    -0.01700
Br564      Br  0.32252300  0.21797984  0.91139748    -0.01700
C565        C  0.08253776  0.30890563  0.49727766    -0.02800
C566        C  0.08227287  0.28096395  0.50803981     0.06800
C567        C  0.12044457  0.27152192  0.52280018    -0.03000
C568        C  0.15360964  0.29089033  0.52961836    -0.03000
C569        C  0.14739708  0.31976108  0.52496283     0.07000
C570        C  0.11383538  0.32842601  0.50661097    -0.03200
Br571      Br  0.11211672  0.36650514  0.99289488    -0.01700
Br572      Br  0.04424124  0.31946925  0.96652938    -0.01800
Br573      Br  0.21120272  0.27801207  0.54012881    -0.01700
Br574      Br  0.13155265  0.23316095  0.53377011    -0.01700
C575        C  0.39575536  0.29537551  0.99533382    -0.02800
C576        C  0.41834924  0.27830333  0.51533502     0.06800
C577        C  0.40186781  0.27726222  0.54347841    -0.03000
C578        C  0.36563676  0.29392760  0.55117946    -0.03000
C579        C  0.34528069  0.31179828  0.53138943     0.07000
C580        C  0.35776659  0.31030790  0.50286463    -0.03200
Br581      Br  0.32429985  0.32951206  0.97387538    -0.01700
Br582      Br  0.42209228  0.30499473  0.95971143    -0.01800
Br583      Br  0.34224980  0.29135536  0.58896550    -0.01700
Br584      Br  0.42914830  0.25611378  0.57352717    -0.01700
C585        C  0.98479650  0.31937676  0.54488436    -0.02800
C586        C  0.00433231  0.29219438  0.54288145     0.06800
C587        C  0.52438708  0.28142127  0.56772877    -0.03000
C588        C  0.52614751  0.29758767  0.59267481    -0.03000
C589        C  0.99983299  0.32183583  0.59570513     0.07000
C590        C  0.97877542  0.33257706  0.57139274    -0.03200
Br591      Br  0.94420510  0.36677322  0.57359390    -0.01700
Br592      Br  0.97079859  0.34102447  0.51215239    -0.01800
Br593      Br  0.56621723  0.28648995  0.62181767    -0.01700
Br594      Br  0.54110590  0.24245220  0.57061000    -0.01700
C595        C  0.15261247  0.16772375  0.78448936    -0.02800
C596        C  0.10942429  0.17605840  0.77793491     0.06800
C597        C  0.10303607  0.19666456  0.75682013    -0.03000
C598        C  0.13951535  0.20746518  0.74254778    -0.03000
C599        C  0.18007815  0.20719303  0.75654751     0.07000
C600        C  0.18807213  0.18208707  0.77246432    -0.03200
Br601      Br  0.24463629  0.16432781  0.77603671    -0.01700
Br602      Br  0.16437538  0.13678356  0.80983100    -0.01800
Br603      Br  0.14336949  0.18887471  0.70672570    -0.01700
Br604      Br  0.04563773  0.20583092  0.74302942    -0.01700
C605        C  0.36926123  0.22954151  0.78030356    -0.02800
C606        C  0.33176092  0.22277757  0.76346318     0.06800
C607        C  0.33324304  0.19657369  0.74869996    -0.03000
C608        C  0.36628374  0.17635882  0.75451101    -0.03000
C609        C  0.39836961  0.18197999  0.77491586     0.07000
C610        C  0.40138750  0.20897612  0.78628796    -0.03200
Br611      Br  0.45130392  0.21741463  0.80997272    -0.01700
Br612      Br  0.38260789  0.26598657  0.79477778    -0.01800
Br613      Br  0.36911639  0.14137068  0.73379302    -0.01700
Br614      Br  0.29169479  0.18827103  0.71911556    -0.01700
C615        C  0.40160387  0.03608639  0.78348946    -0.02800
C616        C  0.39192631  0.06472390  0.78691225     0.06800
C617        C  0.34855664  0.07382305  0.78612428    -0.03000
C618        C  0.31544342  0.05528389  0.77776059    -0.03000
C619        C  0.32359206  0.02551214  0.77498328     0.07000
C620        C  0.36762269  0.01623277  0.78052233    -0.03200
Br621      Br  0.38436527  0.47779406  0.78887010    -0.01700
Br622      Br  0.46197874  0.02424903  0.78360213    -0.01800
Br623      Br  0.25950918  0.07305833  0.77229799     0.00700
Br624      Br  0.33392939  0.11167683  0.79858777    -0.01700
C625        C  0.12829719  0.01562696  0.78932893    -0.02800
C626        C  0.16364015  0.02080847  0.77021965     0.06800
C627        C  0.16040221  0.04579718  0.75351684    -0.03000
C628        C  0.12808343  0.06645152  0.75916290    -0.03000
C629        C  0.09896974  0.06273913  0.78165170     0.07000
C630        C  0.09883755  0.03730775  0.79640731    -0.03200
Br631      Br  0.05852251  0.03273881  0.82749261    -0.01700
Br632      Br  0.11226426  0.47975158  0.80456059    -0.01800
Br633      Br  0.12384906  0.10026345  0.73655602    -0.01700
Br634      Br  0.19822521  0.05187678  0.72156883    -0.01700
C635        C  0.97339099  0.17264932  0.91923527    -0.02800
C636        C  0.99203159  0.18299362  0.89425530     0.06800
C637        C  0.51197304  0.20954649  0.89439443    -0.03000
C638        C  0.51137825  0.22612552  0.91914019    -0.03000
C639        C  0.49699980  0.21464588  0.94526295     0.07000
C640        C  0.97981630  0.18688338  0.94490612    -0.03200
Br641      Br  0.96843365  0.16567125  0.97837922    -0.01700
Br642      Br  0.93854888  0.13877415  0.91862630    -0.01800
Br643      Br  0.52273117  0.26582397  0.91538287    -0.01700
Br644      Br  0.53807519  0.22376801  0.86029603    -0.01700
C645        C  0.38731186  0.02116077  0.96329060    -0.02800
C646        C  0.42224529  0.02913528  0.98147959     0.06800
C647        C  0.42041721  0.05628804  0.99389894    -0.03000
C648        C  0.38933515  0.07635723  0.98495494    -0.03000
C649        C  0.35770796  0.06927541  0.96462212     0.07000
C650        C  0.35495470  0.04113637  0.95542307    -0.03200
Br651      Br  0.30385633  0.02952791  0.93445012    -0.01700
Br652      Br  0.37980967  0.48319929  0.45007006    -0.01800
Br653      Br  0.39056912  0.11359402  0.00084953    -0.01700
Br654      Br  0.45620463  0.06484708  0.02643524    -0.01700
C655        C  0.14087070  0.04321329  0.94675252    -0.02800
C656        C  0.15756459  0.06232238  0.96647572     0.06800
C657        C  0.14336640  0.06044028  0.99456702    -0.03000
C658        C  0.10656120  0.04393481  0.00132612    -0.03000
C659        C  0.08618655  0.02641914  0.98073210     0.07000
C660        C  0.10537104  0.02566844  0.95328993    -0.03200
Br661      Br  0.08390484  0.50319817  0.92262403    -0.01700
Br662      Br  0.17048726  0.03922008  0.91139222    -0.01800
Br663      Br  0.07865316  0.05175531  0.03676351    -0.01700
Br664      Br  0.17403629  0.08050357  0.02390385    -0.01700
C665        C  0.48723787  0.02848951  0.92361956    -0.02800
C666        C  0.50242236  0.03965244  0.94975676     0.06800
C667        C  0.01834364  0.06776722  0.94961501    -0.03000
C668        C  0.02296070  0.08273495  0.92407733    -0.03000
C669        C  0.50497382  0.07213965  0.89893694     0.07000
C670        C  0.48570288  0.04536553  0.89903049    -0.03200
Br671      Br  0.45852221  0.03140693  0.86506593    -0.01700
Br672      Br  0.47595050  0.98883124  0.91936174    -0.01800
Br673      Br  0.05425505  0.11804639  0.92366445    -0.01700
Br674      Br  0.03092171  0.08807638  0.98346611    -0.01700
C675        C  0.38994640  0.42468468  0.51029983    -0.02800
C676        C  0.35734332  0.43236898  0.52968284     0.06800
C677        C  0.35188964  0.46093965  0.53626161    -0.03000
C678        C  0.38477622  0.48057467  0.52968611    -0.03000
C679        C  0.42191411  0.47193023  0.51369248     0.07000
C680        C  0.42123074  0.44452291  0.50173019    -0.03200
Br681      Br  0.45871004  0.43532874  0.47027891    -0.01700
Br682      Br  0.38992206  0.38777356  0.49367949    -0.01800
Br683      Br  0.37463951  0.01853730  0.54192980    -0.01700
Br684      Br  0.29514685  0.47344172  0.54888850    -0.01700
C685        C  0.10720003  0.45834320  0.49756895    -0.02800
C686        C  0.08589053  0.47532285  0.51816918     0.06800
C687        C  0.10403427  0.47562199  0.54603974    -0.03000
C688        C  0.13981930  0.45806704  0.55295059    -0.03000
C689        C  0.15893897  0.44057717  0.53246349     0.07000
C690        C  0.14545183  0.44310419  0.50419095    -0.03200
Br691      Br  0.17812197  0.42495581  0.97434741    -0.01700
Br692      Br  0.07868897  0.44885714  0.96258366    -0.01800
Br693      Br  0.16443100  0.45868098  0.59064736    -0.01700
Br694      Br  0.08012372  0.49713474  0.57679400    -0.01700
C695        C  0.02801912  0.42009209  0.57438102    -0.02800
C696        C  0.50867455  0.43033824  0.59922533     0.06800
C697        C  0.48540985  0.45595415  0.59811330    -0.03000
C698        C  0.48489265  0.47233552  0.57317828    -0.03000
C699        C  0.50166937  0.46140458  0.54743188     0.07000
C700        C  0.02068687  0.43399065  0.54842418    -0.03200
Br701      Br  0.03214338  0.41271445  0.51520540    -0.01700
Br702      Br  0.06347216  0.38618808  0.57551950    -0.01800
Br703      Br  0.46891238  0.51142546  0.57659482    -0.01700
Br704      Br  0.45560621  0.46931416  0.63111130    -0.01700
C705        C  0.50260948  0.98004151  0.02095927     0.01300
C706        C  0.04344154  0.99019359  0.01005525     0.01300
C707        C  0.04372323  0.51137484  0.48817897     0.01300
C708        C  0.00309901  0.52101437  0.47615753     0.01300
C709        C  0.46238966  0.51124681  0.48745918     0.01300
C710        C  0.46213632  0.98967579  0.00864661     0.01300
O711        O  0.44759294  0.59794612  0.27667374    -0.82800
C712        C  0.99432280  0.66430576  0.36958779     0.96600
O713        O  0.46081674  0.65980066  0.35482596    -0.71900
O714        O  0.41726918  0.64713186  0.30841293    -0.75500
Al715      Al  0.44843097  0.62524013  0.33617534     1.49000
C716        C  0.42781313  0.65975543  0.28594486     0.91800
O717        O  0.04928657  0.64494464  0.27359337    -0.81700
O718        O  0.07994192  0.60095994  0.31125387    -0.75300
Al719      Al  0.49833180  0.62183540  0.27921005     1.90100
O720        O  0.06833307  0.65813970  0.31628090    -0.74300
O721        O  0.03689344  0.59371342  0.35887524    -0.74200
O722        O  0.02926607  0.65086094  0.36516584    -0.79900
O723        O  0.46840953  0.60350285  0.36787882    -0.78100
O724        O  0.99861318  0.62438540  0.31719071    -1.14200
O725        O  0.42959124  0.59088124  0.32091203    -0.73400
C726        C  0.42578301  0.58500893  0.29519066     0.97300
C727        C  0.07275882  0.65965601  0.28988220     0.93700
Al728      Al  0.04907592  0.62586320  0.33610434     1.55600
O729        O  0.46389459  0.65486006  0.27421130    -0.78000
C730        C  0.50315461  0.59028905  0.37360960     0.97900
C731        C  0.06903313  0.58542738  0.29083729     0.92800
O732        O  0.03260639  0.58846697  0.27883812    -0.83300
C733        C  0.49786818  0.73279769  0.47189629     0.01300
C734        C  0.45807123  0.74267677  0.48442667     0.01300
C735        C  0.45993749  0.76370620  0.00643779     0.01300
C736        C  0.50139569  0.77377389  0.01656258     0.01300
C737        C  0.04105972  0.76386366  0.00363704     0.01300
C738        C  0.03920730  0.74221299  0.48257872     0.01300
O739        O  0.04813008  0.85101654  0.22419304    -0.82800
C740        C  0.50634225  0.91178851  0.12446074     0.96600
O741        O  0.04054475  0.90495244  0.13786569    -0.71900
O742        O  0.07900656  0.89764711  0.18748720    -0.75500
Al743      Al  0.05116092  0.87275318  0.16154949     1.49000
C744        C  0.06609276  0.91261222  0.20791938     0.91800
O745        O  0.44621431  0.89768270  0.22101227    -0.81700
O746        O  0.41878616  0.85053589  0.18312097    -0.75300
Al747      Al  0.49718322  0.87442541  0.21709760     1.90100
O748        O  0.42797887  0.90890182  0.17790395    -0.74300
O749        O  0.46331741  0.84432559  0.13490725    -0.74200
O750        O  0.47014983  0.90119285  0.13074490    -0.79900
O751        O  0.03421149  0.84847969  0.13161115    -0.78100
O752        O  0.49926949  0.87433408  0.17885568    -1.14200
O753        O  0.06969919  0.83971377  0.18182790    -0.73400
C754        C  0.07097213  0.83569683  0.20819957     0.97300
C755        C  0.42449548  0.91272110  0.20409146     0.93700
Al756      Al  0.44957132  0.87604016  0.15874920     1.55600
O757        O  0.03012191  0.90795903  0.21980138    -0.78000
C758        C  0.99888018  0.83844320  0.12267321     0.97900
C759        C  0.42870293  0.83630902  0.20494467     0.92800
O760        O  0.46339982  0.84104980  0.21851899    -0.83300
C761        C  0.24449984  0.50882021  0.28229475     0.01300
C762        C  0.20455422  0.50219399  0.26720908     0.01300
C763        C  0.20685693  0.98423915  0.24290169     0.01300
C764        C  0.24772234  0.97738186  0.23002024     0.01300
C765        C  0.28724023  0.98801700  0.24256931     0.01300
C766        C  0.28563281  0.50565765  0.26752840     0.01300
O767        O  0.19915152  0.85666805  0.02296085    -0.82800
C768        C  0.24633041  0.91207455  0.12349605     0.96600
O769        O  0.21180923  0.90453941  0.11105871    -0.71900
O770        O  0.17301001  0.90098249  0.06116406    -0.75500
Al771      Al  0.20007765  0.87374420  0.08601810     1.49000
C772        C  0.18688687  0.91675456  0.04143658     0.91800
O773        O  0.30532828  0.89595474  0.02521653    -0.81700
O774        O  0.32982894  0.84995001  0.06205211    -0.75300
Al775      Al  0.25210650  0.87619761  0.03022444     1.90100
O776        O  0.32276638  0.90859247  0.06788024    -0.74300
O777        O  0.28866990  0.84417268  0.11056140    -0.74200
O778        O  0.28268721  0.90180794  0.11622449    -0.79900
O779        O  0.21753643  0.84687826  0.11407732    -0.78100
O780        O  0.25125871  0.87537941  0.06829011    -1.14200
O781        O  0.18021741  0.84205196  0.06464534    -0.73400
C782        C  0.17707997  0.84056954  0.03818146     0.97300
C783        C  0.32702375  0.91120521  0.04157492     0.93700
Al784      Al  0.30160628  0.87608595  0.08736721     1.55600
O785        O  0.22264791  0.91152907  0.02918483    -0.78000
C786        C  0.25346036  0.83614255  0.12158159     0.97900
C787        C  0.31671119  0.83512018  0.04134053     0.92800
O788        O  0.28149820  0.84094805  0.02862501    -0.83300
C789        C  0.25018131  0.73249358  0.27263341     0.01300
C790        C  0.29090397  0.74146324  0.26027620     0.01300
C791        C  0.28896408  0.76071830  0.23706820     0.01300
C792        C  0.24800003  0.76680656  0.22350225     0.01300
C793        C  0.20861555  0.75362716  0.23306381     0.01300
C794        C  0.21251177  0.73174922  0.25434348     0.01300
O795        O  0.30378470  0.60519952  0.47037688    -0.82800
C796        C  0.25051075  0.66401187  0.37332156     0.96600
O797        O  0.28454410  0.66023249  0.38780015    -0.71900
O798        O  0.32929983  0.65338957  0.43444001    -0.75500
Al799      Al  0.30117318  0.62766582  0.40864904     1.49000
C800        C  0.31601134  0.66799699  0.45517174     0.91800
O801        O  0.19832463  0.64868076  0.46944045    -0.81700
O802        O  0.17184794  0.60068256  0.43567323    -0.75300
Al803      Al  0.25103741  0.62686057  0.46560838     1.90100
O804        O  0.17887402  0.65806812  0.42582079    -0.74300
O805        O  0.21668725  0.59182611  0.38969644    -0.74200
O806        O  0.21789724  0.64841367  0.37750683    -0.79900
O807        O  0.28347673  0.60243288  0.37826993    -0.78100
O808        O  0.25105647  0.62645324  0.42768254    -1.14200
O809        O  0.32426556  0.59515772  0.42721088    -0.73400
C810        C  0.32681883  0.59091984  0.45347937     0.97300
C811        C  0.17581336  0.66271235  0.45189719     0.93700
Al812      Al  0.20072957  0.62489600  0.40886223     1.55600
O813        O  0.28113808  0.66175757  0.46762644    -0.78000
C814        C  0.25007773  0.58734654  0.37484495     0.97900
C815        C  0.18506481  0.58614592  0.45651586     0.92800
O816        O  0.22072080  0.59193618  0.46844965    -0.83300
C817        C  0.28773090  0.69684397  0.33849914    -0.02800
C818        C  0.24895336  0.68664660  0.35111349     0.06800
C819        C  0.20907387  0.69999038  0.34301686    -0.03000
C820        C  0.20824483  0.71891456  0.31964900    -0.03000
C821        C  0.24740000  0.72359989  0.30398928     0.07000
C822        C  0.28543091  0.71974629  0.31992870    -0.03200
Br823      Br  0.30271013  0.75362803  0.33868217    -0.01700
Br824      Br  0.34520831  0.68260153  0.34678824    -0.01800
Br825      Br  0.15472118  0.73928476  0.31209066    -0.01700
Br826      Br  0.15556636  0.69309926  0.36342073    -0.01700
C827        C  0.24507703  0.77153379  0.17003663    -0.02800
C828        C  0.24753252  0.78453628  0.19695254     0.06800
C829        C  0.25414018  0.81399575  0.19777268    -0.03000
C830        C  0.26326786  0.82901406  0.17297871    -0.03000
C831        C  0.25465310  0.81707909  0.14653784     0.07000
C832        C  0.24412208  0.78824233  0.14525082    -0.03200
Br833      Br  0.22853334  0.77141074  0.11004524    -0.01700
Br834      Br  0.24486078  0.73093654  0.16641636    -0.01800
Br835      Br  0.29029704  0.86540267  0.17527181    -0.01700
Br836      Br  0.24430237  0.83558025  0.23099916    -0.01700
C837        C  0.22153017  0.92094652  0.17298318    -0.02800
C838        C  0.24385041  0.93066609  0.14907022     0.06800
C839        C  0.26775864  0.95587552  0.15164467    -0.03000
C840        C  0.26608046  0.97192916  0.17696442    -0.03000
C841        C  0.24902262  0.96016130  0.20226778     0.07000
C842        C  0.23012044  0.93291850  0.19962762    -0.03200
Br843      Br  0.22547097  0.90753101  0.23049874    -0.01700
Br844      Br  0.18152758  0.88961541  0.17016634    -0.01800
Br845      Br  0.28188133  0.51092711  0.17524603    -0.01700
Br846      Br  0.30183765  0.96901684  0.12049586    -0.01700
C847        C  0.28573724  0.54655508  0.34834936    -0.02800
C848        C  0.24875702  0.56399405  0.35357791     0.06800
C849        C  0.20854734  0.55554059  0.34129840    -0.03000
C850        C  0.20647822  0.53030311  0.32603165    -0.03000
C851        C  0.24423538  0.52111875  0.31246526     0.07000
C852        C  0.28176409  0.52342307  0.32965304    -0.03200
Br853      Br  0.31239356  0.48938036  0.33894521    -0.01700
Br854      Br  0.34083829  0.55258973  0.36684521    -0.01800
Br855      Br  0.18375002  0.50109639  0.34971155    -0.01700
Br856      Br  0.15401823  0.57433597  0.34808250    -0.01700
C857        C  0.15992193  0.79418956  0.24880728    -0.02800
C858        C  0.16647129  0.77103408  0.23008556     0.06800
C859        C  0.13503500  0.76825810  0.20786302    -0.03000
C860        C  0.09841260  0.78622987  0.20662443    -0.03000
C861        C  0.09920966  0.81241471  0.21991200     0.07000
C862        C  0.12958977  0.81599066  0.24203960    -0.03200
Br863      Br  0.13229275  0.85097222  0.26204046    -0.01700
Br864      Br  0.19451218  0.79788599  0.28271100    -0.01800
Br865      Br  0.04441033  0.77366027  0.19012976    -0.01700
Br866      Br  0.14293700  0.74734266  0.17393798    -0.01700
C867        C  0.38565441  0.79238144  0.19678434    -0.02800
C868        C  0.39802138  0.81443450  0.21485542     0.06800
C869        C  0.37840699  0.81658555  0.24163770    -0.03000
C870        C  0.34042176  0.80104357  0.24755126    -0.03000
C871        C  0.32850704  0.77809117  0.22994426     0.07000
C872        C  0.35381567  0.77292116  0.20545106    -0.03200
Br873      Br  0.34935319  0.73844708  0.18479276    -0.01700
Br874      Br  0.41468945  0.78763691  0.16090530    -0.01800
Br875      Br  0.30685308  0.81096985  0.28087186    -0.01700
Br876      Br  0.40557174  0.83855295  0.27122516    -0.01700
C877        C  0.35718521  0.92407590  0.23146643    -0.02800
C878        C  0.39252079  0.93359740  0.21535871     0.06800
C879        C  0.39821493  0.96296539  0.21220197    -0.03000
C880        C  0.36434199  0.98199942  0.22003947    -0.03000
C881        C  0.32779644  0.97166968  0.23530501     0.07000
C882        C  0.32843303  0.94323806  0.24391328    -0.03200
Br883      Br  0.29687035  0.93191140  0.27732820    -0.01700
Br884      Br  0.34562620  0.88490028  0.23581420    -0.01800
Br885      Br  0.37189868  0.02167784  0.21253093    -0.01700
Br886      Br  0.45484619  0.97695824  0.20207481    -0.01700
C887        C  0.11184596  0.93340713  0.24597382    -0.02800
C888        C  0.09507050  0.93497549  0.21837246     0.06800
C889        C  0.11166966  0.95506814  0.19942322    -0.03000
C890        C  0.14605973  0.97274313  0.20770447    -0.03000
C891        C  0.16658745  0.96876311  0.23435589     0.07000
C892        C  0.15024111  0.94786646  0.25288458    -0.03200
Br893      Br  0.18335207  0.93565994  0.28613376    -0.01700
Br894      Br  0.08158512  0.91250664  0.27474656    -0.01800
Br895      Br  0.16601309  0.50010398  0.18081368    -0.01700
Br896      Br  0.08640817  0.95888617  0.16213907    -0.01700
C897        C  0.11250195  0.67721077  0.48183223    -0.02800
C898        C  0.14443494  0.68427609  0.46187030     0.06800
C899        C  0.14603140  0.71196034  0.45120065    -0.03000
C900        C  0.11336254  0.73182188  0.45837467    -0.03000
C901        C  0.07849285  0.72392576  0.47646541     0.07000
C902        C  0.08025355  0.69694028  0.48937318    -0.03200
Br903      Br  0.04376205  0.68856976  0.52144750    -0.01700
Br904      Br  0.11272418  0.64048811  0.49926295    -0.01800
Br905      Br  0.12050136  0.76961906  0.44461908    -0.01700
Br906      Br  0.19544855  0.72315609  0.42853042    -0.01700
C907        C  0.35906650  0.69358891  0.49257329    -0.02800
C908        C  0.34281915  0.69224282  0.46487390     0.06800
C909        C  0.35712371  0.71210799  0.44515885    -0.03000
C910        C  0.39369208  0.72914371  0.45081725    -0.03000
C911        C  0.41500260  0.72790509  0.47776489     0.07000
C912        C  0.39604125  0.71015812  0.49866426    -0.03200
Br913      Br  0.42623699  0.70187186  0.53335253    -0.01700
Br914      Br  0.33078509  0.67275531  0.52232512    -0.01800
Br915      Br  0.41401315  0.75091516  0.41930867    -0.01700
Br916      Br  0.32248731  0.71795715  0.41156200    -0.01700
C917        C  0.08231920  0.80898588  0.99734082    -0.02800
C918        C  0.08206853  0.78107562  0.00819545     0.06800
C919        C  0.12025281  0.77168292  0.02296728    -0.03000
C920        C  0.15344771  0.79106493  0.02967912    -0.03000
C921        C  0.14722585  0.81992161  0.02494175     0.07000
C922        C  0.11364851  0.82853141  0.00658056    -0.03200
Br923      Br  0.11201247  0.86654805  0.49268579    -0.01700
Br924      Br  0.04400025  0.81945713  0.46657643    -0.01800
Br925      Br  0.21109521  0.77821533  0.04011159    -0.01700
Br926      Br  0.13130391  0.73336696  0.03410516    -0.01700
C927        C  0.39559104  0.79533454  0.49541651    -0.02800
C928        C  0.41814844  0.77827829  0.01544909     0.06800
C929        C  0.40153744  0.77721095  0.04356471    -0.03000
C930        C  0.36521260  0.79382604  0.05119995    -0.03000
C931        C  0.34495250  0.81171459  0.03139158     0.07000
C932        C  0.35754560  0.81023593  0.00288810    -0.03200
Br933      Br  0.32410231  0.82937910  0.47385057    -0.01700
Br934      Br  0.42201437  0.80496284  0.45982681    -0.01800
Br935      Br  0.34150284  0.79114378  0.08890163    -0.01700
Br936      Br  0.42872435  0.75610561  0.07367156    -0.01700
C937        C  0.98459245  0.81939417  0.04501416    -0.02800
C938        C  0.00407063  0.79219465  0.04304518     0.06800
C939        C  0.52396439  0.78138152  0.06792274    -0.03000
C940        C  0.52562340  0.79752163  0.09288593    -0.03000
C941        C  0.99946372  0.82183679  0.09584683     0.07000
C942        C  0.97854650  0.83261482  0.07150566    -0.03200
Br943      Br  0.94408629  0.86685965  0.07365967    -0.01700
Br944      Br  0.97069172  0.84102505  0.01225878    -0.01800
Br945      Br  0.56526321  0.78626311  0.12220502    -0.01700
Br946      Br  0.54062253  0.74240088  0.07078682    -0.01700
C947        C  0.15265232  0.66770480  0.28462967    -0.02800
C948        C  0.10943702  0.67606985  0.27817862     0.06800
C949        C  0.10296700  0.69673344  0.25712930    -0.03000
C950        C  0.13937783  0.70748195  0.24274727    -0.03000
C951        C  0.17999611  0.70722084  0.25667507     0.07000
C952        C  0.18806679  0.68210726  0.27257641    -0.03200
Br953      Br  0.24468576  0.66441723  0.27610209    -0.01700
Br954      Br  0.16448645  0.63666027  0.30984539    -0.01800
Br955      Br  0.14306087  0.68863184  0.20704620    -0.01700
Br956      Br  0.04550412  0.70598163  0.24351516    -0.01700
C957        C  0.36911576  0.72952516  0.28045224    -0.02800
C958        C  0.33167258  0.72279043  0.26354510     0.06800
C959        C  0.33326709  0.69663334  0.24869070    -0.03000
C960        C  0.36638937  0.67644531  0.25444296    -0.03000
C961        C  0.39838856  0.68201938  0.27492248     0.07000
C962        C  0.40129851  0.70897975  0.28638523    -0.03200
Br963      Br  0.45120301  0.71740805  0.31008696    -0.01700
Br964      Br  0.38229879  0.76591185  0.29511549    -0.01800
Br965      Br  0.36950752  0.64158908  0.23351547    -0.01700
Br966      Br  0.29171893  0.68833694  0.21910136    -0.01700
C967        C  0.40160087  0.53607181  0.28368354    -0.02800
C968        C  0.39193074  0.56472784  0.28696408     0.06800
C969        C  0.34858727  0.57385318  0.28596792    -0.03000
C970        C  0.31549438  0.55527910  0.27764419    -0.03000
C971        C  0.32363497  0.52549445  0.27499182     0.07000
C972        C  0.36763154  0.51621817  0.28064216    -0.03200
Br973      Br  0.38440758  0.97781795  0.28874706    -0.01700
Br974      Br  0.46195861  0.52421755  0.28407141    -0.01800
Br975      Br  0.25955835  0.57301890  0.27212565     0.00700
Br976      Br  0.33396630  0.61182004  0.29808795    -0.01700
C977        C  0.12834650  0.51560236  0.28949339    -0.02800
C978        C  0.16364708  0.52079467  0.27034709     0.06800
C979        C  0.16041597  0.54583284  0.25372024    -0.03000
C980        C  0.12825919  0.56655018  0.25951526    -0.03000
C981        C  0.09905189  0.56275647  0.28193926     0.07000
C982        C  0.09885071  0.53726563  0.29659723    -0.03200
Br983      Br  0.05847392  0.53262984  0.32764846    -0.01700
Br984      Br  0.11203590  0.97977384  0.30431813    -0.01800
Br985      Br  0.12448145  0.60061272  0.23725477    -0.01700
Br986      Br  0.19793758  0.55186784  0.22161818    -0.01700
C987        C  0.97317643  0.67268823  0.41941658    -0.02800
C988        C  0.99182785  0.68302344  0.39443531     0.06800
C989        C  0.51186471  0.70954406  0.39458898    -0.03000
C990        C  0.51134904  0.72610426  0.41934625    -0.03000
C991        C  0.49698810  0.71461930  0.44547101     0.07000
C992        C  0.97974237  0.68687027  0.44510315    -0.03200
Br993      Br  0.96849395  0.66559980  0.47856659    -0.01700
Br994      Br  0.93810080  0.63891763  0.41878367    -0.01800
Br995      Br  0.52272928  0.76579548  0.41558873    -0.01700
Br996      Br  0.53794090  0.72376062  0.36048095    -0.01700
C997        C  0.38733764  0.52111209  0.46325264    -0.02800
C998        C  0.42218851  0.52908110  0.48151682     0.06800
C999        C  0.42027881  0.55622502  0.49394853    -0.03000
C1000       C  0.38916845  0.57627675  0.48499871    -0.03000
C1001       C  0.35764968  0.56921592  0.46458448     0.07000
C1002       C  0.35501607  0.54109103  0.45531294    -0.03200
Br1003     Br  0.30412231  0.52948954  0.43412469    -0.01700
Br1004     Br  0.37976835  0.98325668  0.95009181    -0.01800
Br1005     Br  0.39021801  0.61347169  0.50100447    -0.01700
Br1006     Br  0.45605487  0.56481410  0.52648088    -0.01700
C1007       C  0.14090017  0.54317878  0.44686718    -0.02800
C1008       C  0.15751068  0.56232571  0.46657846     0.06800
C1009       C  0.14327100  0.56047052  0.49466112    -0.03000
C1010       C  0.10650347  0.54393179  0.50141960    -0.03000
C1011       C  0.08616692  0.52640165  0.48081991     0.07000
C1012       C  0.10537526  0.52565156  0.45338478    -0.03200
Br1013     Br  0.08392474  0.00316011  0.42255863    -0.01700
Br1014     Br  0.17069984  0.53910405  0.41157770    -0.01800
Br1015     Br  0.07856332  0.55174370  0.53684974    -0.01700
Br1016     Br  0.17382156  0.58063289  0.52398543    -0.01700
C1017       C  0.48714168  0.52849043  0.42372401    -0.02800
C1018       C  0.50237152  0.53963221  0.44985895     0.06800
C1019       C  0.01819895  0.56776636  0.44974730    -0.03000
C1020       C  0.02266263  0.58278988  0.42423678    -0.03000
C1021       C  0.50464190  0.57220607  0.39910728     0.07000
C1022       C  0.48545770  0.54540972  0.39917365    -0.03200
Br1023     Br  0.45818500  0.53149026  0.36522614    -0.01700
Br1024     Br  0.47599598  0.48882239  0.41939861    -0.01800
Br1025     Br  0.05379017  0.61816253  0.42385446    -0.01700
Br1026     Br  0.03087381  0.58802105  0.48360994    -0.01700
C1027       C  0.38999315  0.92465882  0.01031609    -0.02800
C1028       C  0.35742409  0.93233939  0.02972499     0.06800
C1029       C  0.35195787  0.96091498  0.03629114    -0.03000
C1030       C  0.38477704  0.98057545  0.02962892    -0.03000
C1031       C  0.42191387  0.97193456  0.01362787     0.07000
C1032       C  0.42125453  0.94450332  0.00171319    -0.03200
Br1033     Br  0.45873235  0.93527712  0.97027433    -0.01700
Br1034     Br  0.38991513  0.88774119  0.99369735    -0.01800
Br1035     Br  0.37476709  0.51849420  0.04214393    -0.01700
Br1036     Br  0.29526597  0.97338390  0.04905020    -0.01700
C1037       C  0.10717611  0.95840452  0.99746474    -0.02800
C1038       C  0.08588569  0.97537644  0.01807913     0.06800
C1039       C  0.10413211  0.97576467  0.04591717    -0.03000
C1040       C  0.14012543  0.95836800  0.05276442    -0.03000
C1041       C  0.15913760  0.94081338  0.03229638     0.07000
C1042       C  0.14549001  0.94322284  0.00405119    -0.03200
Br1043     Br  0.17807232  0.92501286  0.47420838    -0.01700
Br1044     Br  0.07856840  0.94884647  0.46252993    -0.01800
Br1045     Br  0.16524014  0.95930894  0.09031084    -0.01700
Br1046     Br  0.08001117  0.99710487  0.07672811    -0.01700
C1047       C  0.02793303  0.92014717  0.07440089    -0.02800
C1048       C  0.50834106  0.93034670  0.09918606     0.06800
C1049       C  0.48486119  0.95588233  0.09797198    -0.03000
C1050       C  0.48461762  0.97231472  0.07307109    -0.03000
C1051       C  0.50164643  0.96143333  0.04737399     0.07000
C1052       C  0.02072423  0.93403873  0.04842138    -0.03200
Br1053     Br  0.03229615  0.91274337  0.01523580    -0.01700
Br1054     Br  0.06339878  0.88625157  0.07561770    -0.01800
Br1055     Br  0.46865116  0.01140034  0.07651151    -0.01700
Br1056     Br  0.45411532  0.96899789  0.13070937    -0.01700
C1057       C  0.50261041  0.98003962  0.52095870     0.01300
C1058       C  0.04344236  0.99019145  0.51005403     0.01300
C1059       C  0.04372387  0.51137308  0.98817850     0.01300
C1060       C  0.00309950  0.52101289  0.97615751     0.01300
C1061       C  0.46239013  0.51124531  0.98745904     0.01300
C1062       C  0.46213714  0.98967414  0.50864641     0.01300
O1063       O  0.44759233  0.59794541  0.77667463    -0.82800
C1064       C  0.99432415  0.66430462  0.86958797     0.96600
O1065       O  0.46081840  0.65980028  0.85482624    -0.71900
O1066       O  0.41726999  0.64713166  0.80841339    -0.75500
Al1067     Al  0.44843168  0.62523985  0.83617592     1.49000
C1068       C  0.42781391  0.65975483  0.78594506     0.91800
O1069       O  0.04928729  0.64494196  0.77359315    -0.81700
O1070       O  0.07994169  0.60095751  0.81125423    -0.75300
Al1071     Al  0.49833183  0.62183396  0.77921045     1.90100
O1072       O  0.06833455  0.65813751  0.81628038    -0.74300
O1073       O  0.03689343  0.59371205  0.85887563    -0.74200
O1074       O  0.02926733  0.65085965  0.86516586    -0.79900
O1075       O  0.46841004  0.60350257  0.86787942    -0.78100
O1076       O  0.99861357  0.62438399  0.81719104    -1.14200
O1077       O  0.42959098  0.59088114  0.82091307    -0.73400
C1078       C  0.42578232  0.58500867  0.79519179     0.97300
C1079       C  0.07276012  0.65965336  0.78988157     0.93700
Al1080     Al  0.04907654  0.62586145  0.83610443     1.55600
O1081       O  0.46389530  0.65485905  0.77421149    -0.78000
C1082       C  0.50315484  0.59028839  0.87361007     0.97900
C1083       C  0.06903217  0.58542452  0.79083816     0.92800
O1084       O  0.03260545  0.58846442  0.77883897    -0.83300
C1085       C  0.49786911  0.73279790  0.97189599     0.01300
C1086       C  0.45807196  0.74267738  0.98442578     0.01300
C1087       C  0.45993707  0.76370511  0.50643914     0.01300
C1088       C  0.50139525  0.77377304  0.51656350     0.01300
C1089       C  0.04105929  0.76386269  0.50363822     0.01300
C1090       C  0.03920782  0.74221358  0.98257792     0.01300
O1091       O  0.04813044  0.85101660  0.72419373    -0.82800
C1092       C  0.50634166  0.91178801  0.62446104     0.96600
O1093       O  0.04054498  0.90495134  0.63786517    -0.71900
O1094       O  0.07900616  0.89764739  0.68748710    -0.75500
Al1095     Al  0.05116122  0.87275267  0.66154979     1.49000
C1096       C  0.06609218  0.91261241  0.70791932     0.91800
O1097       O  0.44621319  0.89768098  0.72101314    -0.81700
O1098       O  0.41878673  0.85053460  0.68312080    -0.75300
Al1099     Al  0.49718304  0.87442455  0.71709803     1.90100
O1100       O  0.42797781  0.90890066  0.67790501    -0.74300
O1101       O  0.46331749  0.84432577  0.63490715    -0.74200
O1102       O  0.47014905  0.90119303  0.63074583    -0.79900
O1103       O  0.03421192  0.84847846  0.63161203    -0.78100
O1104       O  0.49926940  0.87433353  0.67885610    -1.14200
O1105       O  0.06970014  0.83971371  0.68182882    -0.73400
C1106       C  0.07097288  0.83569694  0.70820050     0.97300
C1107       C  0.42449391  0.91271933  0.70409259     0.93700
Al1108     Al  0.44957111  0.87603965  0.65874966     1.55600
O1109       O  0.03012157  0.90795881  0.71980161    -0.78000
C1110       C  0.99888021  0.83844246  0.62267393     0.97900
C1111       C  0.42870390  0.83630733  0.70494419     0.92800
O1112       O  0.46340051  0.84104834  0.71851875    -0.83300
C1113       C  0.24450053  0.50881840  0.78229691     0.01300
C1114       C  0.20455494  0.50219193  0.76721143     0.01300
C1115       C  0.20685601  0.98424036  0.74290034     0.01300
C1116       C  0.24772156  0.97738208  0.73001955     0.01300
C1117       C  0.28723954  0.98801695  0.74256873     0.01300
C1118       C  0.28563324  0.50565681  0.76753012     0.01300
O1119       O  0.19915234  0.85666641  0.52296079    -0.82800
C1120       C  0.24633052  0.91207397  0.62349566     0.96600
O1121       O  0.21180941  0.90453911  0.61105806    -0.71900
O1122       O  0.17301121  0.90098158  0.56116281    -0.75500
Al1123     Al  0.20007764  0.87374359  0.58601770     1.49000
C1124       C  0.18688851  0.91675312  0.54143508     0.91800
O1125       O  0.30533012  0.89595193  0.52521651    -0.81700
O1126       O  0.32982835  0.84994711  0.56205343    -0.75300
Al1127     Al  0.25210756  0.87619557  0.53022447     1.90100
O1128       O  0.32276814  0.90859002  0.56788013    -0.74300
O1129       O  0.28866836  0.84417162  0.61056236    -0.74200
O1130       O  0.28268735  0.90180705  0.61622438    -0.79900
O1131       O  0.21753488  0.84687810  0.61407750    -0.78100
O1132       O  0.25125909  0.87537806  0.56829017    -1.14200
O1133       O  0.18021754  0.84205100  0.56464536    -0.73400
C1134       C  0.17708073  0.84056806  0.53818147     0.97300
C1135       C  0.32702573  0.91120249  0.54157479     0.93700
Al1136     Al  0.30160631  0.87608419  0.58736770     1.55600
O1137       O  0.22264986  0.91152732  0.52918375    -0.78000
C1138       C  0.25345831  0.83614216  0.62158232     0.97900
C1139       C  0.31671016  0.83511732  0.54134198     0.92800
O1140       O  0.28149774  0.84094573  0.52862608    -0.83300
C1141       C  0.25018180  0.73249284  0.77263352     0.01300
C1142       C  0.29090424  0.74146263  0.76027599     0.01300
C1143       C  0.28896358  0.76071747  0.73706773     0.01300
C1144       C  0.24799895  0.76680563  0.72350232     0.01300
C1145       C  0.20861480  0.75362601  0.73306412     0.01300
C1146       C  0.21251199  0.73174806  0.75434374     0.01300
O1147       O  0.30378454  0.60519878  0.97037835    -0.82800
C1148       C  0.25051148  0.66401074  0.87332171     0.96600
O1149       O  0.28454565  0.66023121  0.88780027    -0.71900
O1150       O  0.32930038  0.65338913  0.93444060    -0.75500
Al1151     Al  0.30117414  0.62766484  0.90865000     1.49000
C1152       C  0.31601216  0.66799658  0.95517232     0.91800
O1153       O  0.19832502  0.64868088  0.96944092    -0.81700
O1154       O  0.17184817  0.60068235  0.93567378    -0.75300
Al1155     Al  0.25103763  0.62686024  0.96560931     1.90100
O1156       O  0.17887480  0.65806773  0.92582108    -0.74300
O1157       O  0.21668788  0.59182544  0.88969714    -0.74200
O1158       O  0.21789851  0.64841293  0.87750735    -0.79900
O1159       O  0.28347807  0.60243116  0.87827139    -0.78100
O1160       O  0.25105716  0.62645263  0.92768337    -1.14200
O1161       O  0.32426648  0.59515709  0.92721256    -0.73400
C1162       C  0.32681908  0.59091910  0.95348102     0.97300
C1163       C  0.17581386  0.66271223  0.95189747     0.93700
Al1164     Al  0.20073036  0.62489547  0.90886281     1.55600
O1165       O  0.28113907  0.66175707  0.96762733    -0.78000
C1166       C  0.25007891  0.58734514  0.87484623     0.97900
C1167       C  0.18506438  0.58614586  0.95651676     0.92800
O1168       O  0.22072012  0.59193606  0.96845077    -0.83300
C1169       C  0.28773179  0.69684358  0.83849962    -0.02800
C1170       C  0.24895467  0.68664565  0.85111365     0.06800
C1171       C  0.20907453  0.69998900  0.84301670    -0.03000
C1172       C  0.20824564  0.71891351  0.81964907    -0.03000
C1173       C  0.24740068  0.72359923  0.80398946     0.07000
C1174       C  0.28543175  0.71974563  0.81992879    -0.03200
Br1175     Br  0.30271304  0.75362768  0.83868081    -0.01700
Br1176     Br  0.34520957  0.68260168  0.84678888    -0.01800
Br1177     Br  0.15472166  0.73928348  0.81209067    -0.01700
Br1178     Br  0.15556639  0.69309650  0.86341934    -0.01700
C1179       C  0.24507044  0.77153371  0.67003698    -0.02800
C1180       C  0.24753030  0.78453570  0.69695292     0.06800
C1181       C  0.25414038  0.81399494  0.69777319    -0.03000
C1182       C  0.26326843  0.82901304  0.67297918    -0.03000
C1183       C  0.25464985  0.81707874  0.64653847     0.07000
C1184       C  0.24411343  0.78824280  0.64525163    -0.03200
Br1185     Br  0.22851182  0.77141345  0.61004734    -0.01700
Br1186     Br  0.24485269  0.73093648  0.66641584    -0.01800
Br1187     Br  0.29030039  0.86540092  0.67527231    -0.01700
Br1188     Br  0.24430338  0.83557982  0.73099952    -0.01700
C1189       C  0.22153110  0.92094553  0.67298311    -0.02800
C1190       C  0.24385044  0.93066550  0.64906991     0.06800
C1191       C  0.26775734  0.95587546  0.65164407    -0.03000
C1192       C  0.26607936  0.97192906  0.67696387    -0.03000
C1193       C  0.24902194  0.96016117  0.70226733     0.07000
C1194       C  0.23012042  0.93291811  0.69962745    -0.03200
Br1195     Br  0.22546935  0.90753140  0.73049921    -0.01700
Br1196     Br  0.18152998  0.88961360  0.67016641    -0.01800
Br1197     Br  0.28188159  0.51092758  0.67524727    -0.01700
Br1198     Br  0.30183387  0.96901779  0.62049460    -0.01700
C1199       C  0.28573809  0.54655260  0.84835179    -0.02800
C1200       C  0.24875812  0.56399215  0.85357966     0.06800
C1201       C  0.20854866  0.55553898  0.84129972    -0.03000
C1202       C  0.20647914  0.53030101  0.82603390    -0.03000
C1203       C  0.24423618  0.52111621  0.81246768     0.07000
C1204       C  0.28176494  0.52342056  0.82965540    -0.03200
Br1205     Br  0.31239640  0.48937817  0.83894605    -0.01700
Br1206     Br  0.34083870  0.55258693  0.86684819    -0.01800
Br1207     Br  0.18375271  0.50109522  0.84971566    -0.01700
Br1208     Br  0.15401994  0.57433541  0.84808204    -0.01700
C1209       C  0.15992247  0.79418898  0.74880787    -0.02800
C1210       C  0.16647024  0.77103303  0.73008647     0.06800
C1211       C  0.13503216  0.76825702  0.70786481    -0.03000
C1212       C  0.09841048  0.78622943  0.70662676    -0.03000
C1213       C  0.09920986  0.81241470  0.71991324     0.07000
C1214       C  0.12959095  0.81599053  0.74204027    -0.03200
Br1215     Br  0.13229531  0.85097217  0.76204085    -0.01700
Br1216     Br  0.19451351  0.79788507  0.78271127    -0.01800
Br1217     Br  0.04440610  0.77366046  0.69013442    -0.01700
Br1218     Br  0.14292993  0.74734133  0.67393958    -0.01700
C1219       C  0.38565354  0.79238045  0.69678277    -0.02800
C1220       C  0.39802233  0.81443259  0.71485452     0.06800
C1221       C  0.37840845  0.81658337  0.74163692    -0.03000
C1222       C  0.34042255  0.80104207  0.74755037    -0.03000
C1223       C  0.32850640  0.77809025  0.72994307     0.07000
C1224       C  0.35381356  0.77292072  0.70544906    -0.03200
Br1225     Br  0.34934588  0.73844844  0.68478818    -0.01700
Br1226     Br  0.41468764  0.78763642  0.66090329    -0.01800
Br1227     Br  0.30685460  0.81096867  0.78087118    -0.01700
Br1228     Br  0.40557503  0.83854937  0.77122470    -0.01700
C1229       C  0.35718425  0.92407488  0.73146857    -0.02800
C1230       C  0.39251948  0.93359575  0.71536001     0.06800
C1231       C  0.39821365  0.96296357  0.71220210    -0.03000
C1232       C  0.36434123  0.98199804  0.72003935    -0.03000
C1233       C  0.32779554  0.97166901  0.73530518     0.07000
C1234       C  0.32843181  0.94323764  0.74391446    -0.03200
Br1235     Br  0.29686796  0.93191231  0.77732938    -0.01700
Br1236     Br  0.34562615  0.88489934  0.73581887    -0.01800
Br1237     Br  0.37189891  0.02167619  0.71252998    -0.01700
Br1238     Br  0.45484459  0.97695570  0.70207317    -0.01700
C1239       C  0.11184583  0.93340779  0.74597333    -0.02800
C1240       C  0.09506965  0.93497603  0.71837214     0.06800
C1241       C  0.11166811  0.95506877  0.69942271    -0.03000
C1242       C  0.14605856  0.97274374  0.70770344    -0.03000
C1243       C  0.16658653  0.96876415  0.73435484     0.07000
C1244       C  0.15024059  0.94786770  0.75288387    -0.03200
Br1245     Br  0.18335130  0.93566280  0.78613374    -0.01700
Br1246     Br  0.08158660  0.91250644  0.77474614    -0.01800
Br1247     Br  0.16601381  0.50010390  0.68081585    -0.01700
Br1248     Br  0.08640495  0.95888703  0.66213904    -0.01700
C1249       C  0.11250177  0.67721099  0.98183185    -0.02800
C1250       C  0.14443522  0.68427613  0.96187013     0.06800
C1251       C  0.14603186  0.71196028  0.95120028    -0.03000
C1252       C  0.11336305  0.73182199  0.95837406    -0.03000
C1253       C  0.07849337  0.72392617  0.97646493     0.07000
C1254       C  0.08025389  0.69694081  0.98937292    -0.03200
Br1255     Br  0.04376336  0.68857098  0.02144789    -0.01700
Br1256     Br  0.11272207  0.64048797  0.99926170    -0.01800
Br1257     Br  0.12050180  0.76961902  0.94461811    -0.01700
Br1258     Br  0.19544889  0.72315561  0.92852975    -0.01700
C1259       C  0.35906787  0.69358903  0.99257335    -0.02800
C1260       C  0.34281996  0.69224262  0.96487413     0.06800
C1261       C  0.35712416  0.71210765  0.94515877    -0.03000
C1262       C  0.39369259  0.72914351  0.95081676    -0.03000
C1263       C  0.41500351  0.72790526  0.97776427     0.07000
C1264       C  0.39604275  0.71015830  0.99866387    -0.03200
Br1265     Br  0.42623932  0.70187223  0.03335185    -0.01700
Br1266     Br  0.33078666  0.67275611  0.02232571    -0.01800
Br1267     Br  0.41401322  0.75091463  0.91930785    -0.01700
Br1268     Br  0.32248692  0.71795659  0.91156225    -0.01700
C1269       C  0.08231917  0.80898467  0.49734174    -0.02800
C1270       C  0.08206816  0.78107454  0.50819664     0.06800
C1271       C  0.12025257  0.77168161  0.52296820    -0.03000
C1272       C  0.15344816  0.79106337  0.52967946    -0.03000
C1273       C  0.14722662  0.81992005  0.52494193     0.07000
C1274       C  0.11364919  0.82852995  0.50658088    -0.03200
Br1275     Br  0.11201065  0.86654987  0.99268640    -0.01700
Br1276     Br  0.04400068  0.81945815  0.96657523    -0.01800
Br1277     Br  0.21109599  0.77821331  0.54011083    -0.01700
Br1278     Br  0.13130272  0.73336569  0.53410658    -0.01700
C1279       C  0.39559164  0.79533611  0.99541478    -0.02800
C1280       C  0.41814803  0.77827688  0.51545082     0.06800
C1281       C  0.40153624  0.77720869  0.54356629    -0.03000
C1282       C  0.36520956  0.79382234  0.55120108    -0.03000
C1283       C  0.34495048  0.81171147  0.53139291     0.07000
C1284       C  0.35754442  0.81023362  0.50288965    -0.03200
Br1285     Br  0.32410384  0.82938181  0.97384910    -0.01700
Br1286     Br  0.42201488  0.80496360  0.95982481    -0.01800
Br1287     Br  0.34149414  0.79113660  0.58890107    -0.01700
Br1288     Br  0.42872419  0.75610463  0.57367365    -0.01700
C1289       C  0.98459261  0.81939305  0.54501521    -0.02800
C1290       C  0.00407021  0.79219337  0.54304652     0.06800
C1291       C  0.52396385  0.78138057  0.56792361    -0.03000
C1292       C  0.52562254  0.79752053  0.59288693    -0.03000
C1293       C  0.99946351  0.82183581  0.59584782     0.07000
C1294       C  0.97854703  0.83261406  0.57150649    -0.03200
Br1295     Br  0.94408774  0.86685935  0.57366005    -0.01700
Br1296     Br  0.97069178  0.84102374  0.51225975    -0.01800
Br1297     Br  0.56525895  0.78626057  0.62220738    -0.01700
Br1298     Br  0.54062212  0.74239989  0.57078733    -0.01700
C1299       C  0.15265380  0.66770279  0.78462954    -0.02800
C1300       C  0.10943843  0.67606696  0.77817749     0.06800
C1301       C  0.10296880  0.69672941  0.75712691    -0.03000
C1302       C  0.13938023  0.70747886  0.74274609    -0.03000
C1303       C  0.17999720  0.70721922  0.75667539     0.07000
C1304       C  0.18806825  0.68210585  0.77257696    -0.03200
Br1305     Br  0.24468769  0.66441649  0.77610286    -0.01700
Br1306     Br  0.16448798  0.63665786  0.80984466    -0.01800
Br1307     Br  0.14306919  0.68862922  0.70704502    -0.01700
Br1308     Br  0.04550659  0.70597468  0.74350966    -0.01700
C1309       C  0.36911737  0.72952487  0.78045119    -0.02800
C1310       C  0.33167331  0.72278995  0.76354480     0.06800
C1311       C  0.33326735  0.69663263  0.74869083    -0.03000
C1312       C  0.36638902  0.67644425  0.75444360    -0.03000
C1313       C  0.39838931  0.68201871  0.77492230     0.07000
C1314       C  0.40130061  0.70897957  0.78638370    -0.03200
Br1315     Br  0.45120827  0.71740871  0.81008232    -0.01700
Br1316     Br  0.38230133  0.76591152  0.79511417    -0.01800
Br1317     Br  0.36950515  0.64158709  0.73351764    -0.01700
Br1318     Br  0.29171958  0.68833660  0.71910114    -0.01700
C1319       C  0.40160077  0.53607173  0.78368456    -0.02800
C1320       C  0.39193007  0.56472757  0.78696561     0.06800
C1321       C  0.34858644  0.57385263  0.78597036    -0.03000
C1322       C  0.31549357  0.55527838  0.77764702    -0.03000
C1323       C  0.32363489  0.52549385  0.77499373     0.07000
C1324       C  0.36763186  0.51621785  0.78064323    -0.03200
Br1325     Br  0.38440582  0.97781876  0.78874771    -0.01700
Br1326     Br  0.46195882  0.52421809  0.78407192    -0.01800
Br1327     Br  0.25955669  0.57301781  0.77213045     0.00700
Br1328     Br  0.33396552  0.61181939  0.79809085    -0.01700
C1329       C  0.12834734  0.51559986  0.78949570    -0.02800
C1330       C  0.16364784  0.52079245  0.77034949     0.06800
C1331       C  0.16041644  0.54583041  0.75372239    -0.03000
C1332       C  0.12825872  0.56654728  0.75951673    -0.03000
C1333       C  0.09905069  0.56275336  0.78194029     0.07000
C1334       C  0.09885018  0.53726268  0.79659869    -0.03200
Br1335     Br  0.05847328  0.53262673  0.82764977    -0.01700
Br1336     Br  0.11203179  0.97977581  0.80431499    -0.01800
Br1337     Br  0.12448110  0.60060971  0.73725609    -0.01700
Br1338     Br  0.19793991  0.55186615  0.72162134    -0.01700
C1339       C  0.97317842  0.67268739  0.91941697    -0.02800
C1340       C  0.99182943  0.68302236  0.89443545     0.06800
C1341       C  0.51186511  0.70954360  0.89458887    -0.03000
C1342       C  0.51134948  0.72610402  0.91934600    -0.03000
C1343       C  0.49698935  0.71461915  0.94547098     0.07000
C1344       C  0.97974391  0.68687006  0.94510324    -0.03200
Br1345     Br  0.96849598  0.66560011  0.97856712    -0.01700
Br1346     Br  0.93810351  0.63891643  0.91878488    -0.01800
Br1347     Br  0.52272925  0.76579528  0.91558811    -0.01700
Br1348     Br  0.53793852  0.72376050  0.86048012    -0.01700
C1349       C  0.38733778  0.52111116  0.96325330    -0.02800
C1350       C  0.42218890  0.52907984  0.98151737     0.06800
C1351       C  0.42027905  0.55622350  0.99394976    -0.03000
C1352       C  0.38916845  0.57627540  0.98500054    -0.03000
C1353       C  0.35764952  0.56921494  0.96458630     0.07000
C1354       C  0.35501572  0.54109013  0.95531446    -0.03200
Br1355     Br  0.30412079  0.52948874  0.93412740    -0.01700
Br1356     Br  0.37976944  0.98325669  0.45009148    -0.01800
Br1357     Br  0.39021759  0.61346998  0.00100735    -0.01700
Br1358     Br  0.45605498  0.56481194  0.02648227    -0.01700
C1359       C  0.14089994  0.54317862  0.94686767    -0.02800
C1360       C  0.15750968  0.56232572  0.96657907     0.06800
C1361       C  0.14326909  0.56047063  0.99466160    -0.03000
C1362       C  0.10650224  0.54393110  0.00141978    -0.03000
C1363       C  0.08616712  0.52640046  0.98081998     0.07000
C1364       C  0.10537589  0.52565063  0.95338508    -0.03200
Br1365     Br  0.08392321  0.00316131  0.92255876    -0.01700
Br1366     Br  0.17069864  0.53910513  0.91157786    -0.01800
Br1367     Br  0.07856081  0.55174219  0.03684971    -0.01700
Br1368     Br  0.17381673  0.58063465  0.02398600    -0.01700
C1369       C  0.48714214  0.52848930  0.92372379    -0.02800
C1370       C  0.50237158  0.53963094  0.94985887     0.06800
C1371       C  0.01819859  0.56776510  0.94974766    -0.03000
C1372       C  0.02266230  0.58278878  0.92423727    -0.03000
C1373       C  0.50464184  0.57220529  0.89910762     0.07000
C1374       C  0.48545769  0.54540894  0.89917370    -0.03200
Br1375     Br  0.45818374  0.53149018  0.86522634    -0.01700
Br1376     Br  0.47599717  0.48882124  0.91939784    -0.01800
Br1377     Br  0.05378927  0.61816165  0.92385534    -0.01700
Br1378     Br  0.03087209  0.58801986  0.98361042    -0.01700
C1379       C  0.38999416  0.92465685  0.51031497    -0.02800
C1380       C  0.35742579  0.93233686  0.52972460     0.06800
C1381       C  0.35195938  0.96091238  0.53629105    -0.03000
C1382       C  0.38477831  0.98057308  0.52962901    -0.03000
C1383       C  0.42191486  0.97193265  0.51362753     0.07000
C1384       C  0.42125545  0.94450160  0.50171232    -0.03200
Br1385     Br  0.45873348  0.93527598  0.47027342    -0.01700
Br1386     Br  0.38991460  0.88774005  0.49369429    -0.01800
Br1387     Br  0.37476648  0.51849745  0.54214383    -0.01700
Br1388     Br  0.29526695  0.97338101  0.54904919    -0.01700
C1389       C  0.10717669  0.95840210  0.49746302    -0.02800
C1390       C  0.08588662  0.97537422  0.51807750     0.06800
C1391       C  0.10413381  0.97576284  0.54591529    -0.03000
C1392       C  0.14012799  0.95836687  0.55276222    -0.03000
C1393       C  0.15913955  0.94081185  0.53229434     0.07000
C1394       C  0.14549080  0.94322046  0.50404931    -0.03200
Br1395     Br  0.17807261  0.92501637  0.97421010    -0.01700
Br1396     Br  0.07856840  0.94884894  0.96253147    -0.01800
Br1397     Br  0.16524460  0.95930907  0.59030807    -0.01700
Br1398     Br  0.08001245  0.99710223  0.57672660    -0.01700
C1399       C  0.02793387  0.92014575  0.57440053    -0.02800
C1400       C  0.50834059  0.93034582  0.59918607     0.06800
C1401       C  0.48486059  0.95588138  0.59797141    -0.03000
C1402       C  0.48461847  0.97231368  0.57307051    -0.03000
C1403       C  0.50164740  0.96143188  0.54737364     0.07000
C1404       C  0.02072526  0.93403697  0.54842078    -0.03200
Br1405     Br  0.03229714  0.91274124  0.51523537    -0.01700
Br1406     Br  0.06339994  0.88625032  0.57561785    -0.01800
Br1407     Br  0.46865449  0.01139969  0.57651088    -0.01700
Br1408     Br  0.45411188  0.96899694  0.63070769    -0.01700
C1409       C  0.00260964  0.48001434  0.02102651     0.01300
C1410       C  0.54344864  0.49015679  0.01012651     0.01300
C1411       C  0.54373213  0.01140406  0.48810130     0.01300
C1412       C  0.50311943  0.02104575  0.47607742     0.01300
C1413       C  0.96241040  0.01127599  0.48738885     0.01300
C1414       C  0.96213216  0.48965873  0.00872501     0.01300
O1415       O  0.94752087  0.09796938  0.27654860    -0.82800
C1416       C  0.49452067  0.16427327  0.36940942     0.96600
O1417       O  0.96098463  0.15974136  0.35468825    -0.71900
O1418       O  0.91731801  0.14705000  0.30834279    -0.75500
Al1419     Al  0.94859099  0.12517210  0.33606257     1.49000
C1420       C  0.92783410  0.15973267  0.28590393     0.91800
O1421       O  0.54926349  0.14493329  0.27335636    -0.81700
O1422       O  0.57999078  0.10096533  0.31095078    -0.75300
Al1423     Al  0.99830253  0.12183991  0.27903611     1.90100
O1424       O  0.56831347  0.15815346  0.31603050    -0.74300
O1425       O  0.53715439  0.09368093  0.35866899    -0.74200
O1426       O  0.52946438  0.15083539  0.36496597    -0.79900
O1427       O  0.96868448  0.10343618  0.36773648    -0.78100
O1428       O  0.49870285  0.12435199  0.31701849    -1.14200
O1429       O  0.92978309  0.09080534  0.32081645    -0.73400
C1430       C  0.92582148  0.08498912  0.29509302     0.97300
C1431       C  0.57272795  0.15966235  0.28963227     0.93700
Al1432     Al  0.54920373  0.12585093  0.33586862     1.55600
O1433       O  0.96390174  0.15488039  0.27413942    -0.78000
C1434       C  0.00345030  0.09023348  0.37343758     0.97900
C1435       C  0.56901259  0.08543421  0.29054514     0.92800
O1436       O  0.53254823  0.08846946  0.27859279    -0.83300
C1437       C  0.99791707  0.23281724  0.47169343     0.01300
C1438       C  0.95815161  0.24270457  0.48425676     0.01300
C1439       C  0.96009353  0.26371907  0.00628305     0.01300
C1440       C  0.00158298  0.27374981  0.01640524     0.01300
C1441       C  0.54120879  0.26380566  0.00345964     0.01300
C1442       C  0.53927883  0.24219221  0.48236771     0.01300
O1443       O  0.54819301  0.35094986  0.22420232    -0.82800
C1444       C  0.00663774  0.41175771  0.12446967     0.96600
O1445       O  0.54083787  0.40482368  0.13782354    -0.71900
O1446       O  0.57913528  0.39758028  0.18749425    -0.75500
Al1447     Al  0.55136498  0.37265869  0.16154958     1.49000
C1448       C  0.56616726  0.41255849  0.20790347     0.91800
O1449       O  0.94625615  0.39755055  0.22099181    -0.81700
O1450       O  0.91899397  0.35040894  0.18294065    -0.75300
Al1451     Al  0.99726155  0.37433777  0.21705082     1.90100
O1452       O  0.92800632  0.40879925  0.17790264    -0.74300
O1453       O  0.96358786  0.34435955  0.13472200    -0.74200
O1454       O  0.97039325  0.40124552  0.13077184    -0.79900
O1455       O  0.53451367  0.34836355  0.13160695    -0.78100
O1456       O  0.99942238  0.37426432  0.17880829    -1.14200
O1457       O  0.56983727  0.33963840  0.18186410    -0.73400
C1458       C  0.57103519  0.33561374  0.20823616     0.97300
C1459       C  0.92447796  0.41257474  0.20409804     0.93700
Al1460     Al  0.94976095  0.37600038  0.15866650     1.55600
O1461       O  0.53018325  0.40788926  0.21977211    -0.78000
C1462       C  0.49918677  0.33841152  0.12256492     0.97900
C1463       C  0.92885413  0.33619282  0.20478124     0.92800
O1464       O  0.96349741  0.34095175  0.21841190    -0.83300
C1465       C  0.74445405  0.00881274  0.28223695     0.01300
C1466       C  0.70452992  0.00219765  0.26713553     0.01300
C1467       C  0.70687202  0.48421412  0.24297594     0.01300
C1468       C  0.74774358  0.47729924  0.23011934     0.01300
C1469       C  0.78727623  0.48792703  0.24266108     0.01300
C1470       C  0.78559216  0.00569291  0.26747286     0.01300
O1471       O  0.69928468  0.35652206  0.02302959    -0.82800
C1472       C  0.74634839  0.41193908  0.12359359     0.96600
O1473       O  0.71184902  0.40427801  0.11120741    -0.71900
O1474       O  0.67301900  0.40072850  0.06129079    -0.75500
Al1475     Al  0.70024982  0.37350604  0.08609995     1.49000
C1476       C  0.68679680  0.41654404  0.04156411     0.91800
O1477       O  0.80532632  0.39593208  0.02522310    -0.81700
O1478       O  0.83007977  0.35003319  0.06204355    -0.75300
Al1479     Al  0.75217586  0.37611145  0.03028459     1.90100
O1480       O  0.82270906  0.40866724  0.06786323    -0.74300
O1481       O  0.78907948  0.34419873  0.11060030    -0.74200
O1482       O  0.78276555  0.40181452  0.11624987    -0.79900
O1483       O  0.71791568  0.34663969  0.11407901    -0.78100
O1484       O  0.75139323  0.37528425  0.06834630    -1.14200
O1485       O  0.68048655  0.34180043  0.06469542    -0.73400
C1486       C  0.67727773  0.34037648  0.03823025     0.97300
C1487       C  0.82697279  0.41123682  0.04155698     0.93700
Al1488     Al  0.80177389  0.37612291  0.08738156     1.55600
O1489       O  0.72257123  0.41139585  0.02928954    -0.78000
C1490       C  0.75392477  0.33603136  0.12158562     0.97900
C1491       C  0.81697336  0.33515945  0.04136024     0.92800
O1492       O  0.78169350  0.34090730  0.02867809    -0.83300
C1493       C  0.75028664  0.23244540  0.27254952     0.01300
C1494       C  0.79100475  0.24143879  0.26019712     0.01300
C1495       C  0.78906323  0.26066721  0.23697445     0.01300
C1496       C  0.74809600  0.26675610  0.22343235     0.01300
C1497       C  0.70871905  0.25359450  0.23299820     0.01300
C1498       C  0.71261541  0.23170888  0.25425842     0.01300
O1499       O  0.80386971  0.10527754  0.47035576    -0.82800
C1500       C  0.75067871  0.16389289  0.37319020     0.96600
O1501       O  0.78470691  0.16014274  0.38768988    -0.71900
O1502       O  0.82939386  0.15339026  0.43435218    -0.75500
Al1503     Al  0.80131979  0.12761524  0.40858470     1.49000
C1504       C  0.81604969  0.16803826  0.45504083     0.91800
O1505       O  0.69836254  0.14868817  0.46926576    -0.81700
O1506       O  0.67195345  0.10067003  0.43556995    -0.75300
Al1507     Al  0.75109516  0.12689299  0.46550746     1.90100
O1508       O  0.67899526  0.15803142  0.42562379    -0.74300
O1509       O  0.71686280  0.09173776  0.38965574    -0.74200
O1510       O  0.71808950  0.14828507  0.37736078    -0.79900
O1511       O  0.78366664  0.10231605  0.37822863    -0.78100
O1512       O  0.75117646  0.12642452  0.42758697    -1.14200
O1513       O  0.82438120  0.09515300  0.42721241    -0.73400
C1514       C  0.82691590  0.09097162  0.45348975     0.97300
C1515       C  0.67587718  0.16269636  0.45169266     0.93700
Al1516     Al  0.70088061  0.12483184  0.40874087     1.55600
O1517       O  0.78115222  0.16181378  0.46747909    -0.78000
C1518       C  0.75029103  0.08724500  0.37480519     0.97900
C1519       C  0.68515191  0.08614160  0.45642553     0.92800
O1520       O  0.72079330  0.09194685  0.46837227    -0.83300
C1521       C  0.78789211  0.19669172  0.33835846    -0.02800
C1522       C  0.74912690  0.18651731  0.35098665     0.06800
C1523       C  0.70924567  0.19987942  0.34292599    -0.03000
C1524       C  0.70839589  0.21881138  0.31956960    -0.03000
C1525       C  0.74753371  0.22350753  0.30389249     0.07000
C1526       C  0.78560214  0.21958593  0.31978298    -0.03200
Br1527     Br  0.80326658  0.25343837  0.33841987    -0.01700
Br1528     Br  0.84535773  0.18241568  0.34663852    -0.01800
Br1529     Br  0.65481129  0.23912262  0.31203233    -0.01700
Br1530     Br  0.65576122  0.19299033  0.36335981    -0.01700
C1531       C  0.74558724  0.27140981  0.16997818    -0.02800
C1532       C  0.74766167  0.28445130  0.19688648     0.06800
C1533       C  0.75412574  0.31391678  0.19773136    -0.03000
C1534       C  0.76348403  0.32892792  0.17297891    -0.03000
C1535       C  0.75521969  0.31695583  0.14651253     0.07000
C1536       C  0.74492323  0.28808852  0.14517701    -0.03200
Br1537     Br  0.73020144  0.27115897  0.10986584    -0.01700
Br1538     Br  0.74526337  0.23080533  0.16640777    -0.01800
Br1539     Br  0.79048003  0.36531564  0.17536436    -0.01700
Br1540     Br  0.74375448  0.33548498  0.23090729    -0.01700
C1541       C  0.72163148  0.42076918  0.17312542    -0.02800
C1542       C  0.74381366  0.43053382  0.14917525     0.06800
C1543       C  0.76755316  0.45581547  0.15169929    -0.03000
C1544       C  0.76600340  0.47183758  0.17704828    -0.03000
C1545       C  0.74903746  0.46005567  0.20237210     0.07000
C1546       C  0.73019615  0.43278936  0.19975714    -0.03200
Br1547     Br  0.72556339  0.40744732  0.23066299    -0.01700
Br1548     Br  0.68178941  0.38934230  0.17035993    -0.01800
Br1549     Br  0.78181587  0.01103624  0.17510805    -0.01700
Br1550     Br  0.80106766  0.46914752  0.12037589    -0.01700
C1551       C  0.78573823  0.04632340  0.34839579    -0.02800
C1552       C  0.74886217  0.06389694  0.35354017     0.06800
C1553       C  0.70865627  0.05558794  0.34118157    -0.03000
C1554       C  0.70642775  0.03036347  0.32591581    -0.03000
C1555       C  0.74416992  0.02102934  0.31243293     0.07000
C1556       C  0.78166229  0.02322088  0.32966552    -0.03200
Br1557     Br  0.81226137  0.98912336  0.33880122    -0.01700
Br1558     Br  0.84076999  0.05216986  0.36703285    -0.01800
Br1559     Br  0.68325905  0.00127015  0.34954383    -0.01700
Br1560     Br  0.65422878  0.07454762  0.34786862    -0.01700
C1561       C  0.65982352  0.29401045  0.24888826    -0.02800
C1562       C  0.66656590  0.27098541  0.23002735     0.06800
C1563       C  0.63527373  0.26829228  0.20771042    -0.03000
C1564       C  0.59859255  0.28620397  0.20648954    -0.03000
C1565       C  0.59918567  0.31229503  0.21995760     0.07000
C1566       C  0.62934472  0.31576583  0.24223367    -0.03200
Br1567     Br  0.63144937  0.35052580  0.26266337    -0.01700
Br1568     Br  0.69450045  0.29768563  0.28276564    -0.01800
Br1569     Br  0.54478161  0.27368427  0.18968300    -0.01700
Br1570     Br  0.64346799  0.24762383  0.17366024    -0.01700
C1571       C  0.88572787  0.29228725  0.19662080    -0.02800
C1572       C  0.89812823  0.31434409  0.21467886     0.06800
C1573       C  0.87848833  0.31653972  0.24144723    -0.03000
C1574       C  0.84046048  0.30104109  0.24735192    -0.03000
C1575       C  0.82859809  0.27803314  0.22980922     0.07000
C1576       C  0.85393337  0.27281674  0.20533489    -0.03200
Br1577     Br  0.84965826  0.23825182  0.18481229    -0.01700
Br1578     Br  0.91462494  0.28755855  0.16069260    -0.01800
Br1579     Br  0.80687578  0.31101310  0.28064223    -0.01700
Br1580     Br  0.90570874  0.33847305  0.27104337    -0.01700
C1581       C  0.85715524  0.42394483  0.23153657    -0.02800
C1582       C  0.89249901  0.43344496  0.21541134     0.06800
C1583       C  0.89827643  0.46281227  0.21234150    -0.03000
C1584       C  0.86441914  0.48186649  0.22016161    -0.03000
C1585       C  0.82783354  0.47155907  0.23540507     0.07000
C1586       C  0.82845067  0.44312798  0.24401481    -0.03200
Br1587     Br  0.79693464  0.43184190  0.27746857    -0.01700
Br1588     Br  0.84552281  0.38478825  0.23589811    -0.01800
Br1589     Br  0.87206385  0.52153294  0.21265026    -0.01700
Br1590     Br  0.95504260  0.47675805  0.20248153    -0.01700
C1591       C  0.61181200  0.43341146  0.24598162    -0.02800
C1592       C  0.59511516  0.43494481  0.21835937     0.06800
C1593       C  0.61178775  0.45501161  0.19940669    -0.03000
C1594       C  0.64613752  0.47270852  0.20772149    -0.03000
C1595       C  0.66658820  0.46875771  0.23440551     0.07000
C1596       C  0.65019609  0.44786775  0.25292311    -0.03200
Br1597     Br  0.68328754  0.43560265  0.28615793    -0.01700
Br1598     Br  0.58149816  0.41252317  0.27472954    -0.01800
Br1599     Br  0.66588567  0.00015326  0.18079886    -0.01700
Br1600     Br  0.58670969  0.45875764  0.16206339    -0.01700
C1601       C  0.61258452  0.17719848  0.48163595    -0.02800
C1602       C  0.64446077  0.18424945  0.46162746     0.06800
C1603       C  0.64600341  0.21191778  0.45090934    -0.03000
C1604       C  0.61335440  0.23178085  0.45810418    -0.03000
C1605       C  0.57851414  0.22388634  0.47621471     0.07000
C1606       C  0.58028293  0.19690742  0.48913519    -0.03200
Br1607     Br  0.54378399  0.18855520  0.52121483    -0.01700
Br1608     Br  0.61304650  0.14056141  0.49926294    -0.01800
Br1609     Br  0.62051333  0.26959367  0.44439170    -0.01700
Br1610     Br  0.69536343  0.22311724  0.42818857    -0.01700
C1611       C  0.85909098  0.19364788  0.49242630    -0.02800
C1612       C  0.84283702  0.19229984  0.46473032     0.06800
C1613       C  0.85714369  0.21215984  0.44500938    -0.03000
C1614       C  0.89371996  0.22919517  0.45066451    -0.03000
C1615       C  0.91504401  0.22795718  0.47761006     0.07000
C1616       C  0.89606845  0.21021796  0.49851423    -0.03200
Br1617     Br  0.92625983  0.20191468  0.53319706    -0.01700
Br1618     Br  0.83085197  0.17276808  0.52216581    -0.01800
Br1619     Br  0.91402834  0.25097221  0.41915707    -0.01700
Br1620     Br  0.82252379  0.21798090  0.41139703    -0.01700
C1621       C  0.58253626  0.30890415  0.99727811    -0.02800
C1622       C  0.58227096  0.28096260  0.00804058     0.06800
C1623       C  0.62044237  0.27152046  0.02280112    -0.03000
C1624       C  0.65360818  0.29088857  0.02961870    -0.03000
C1625       C  0.64739658  0.31975927  0.02496255     0.07000
C1626       C  0.61383484  0.32842429  0.00661066    -0.03200
Br1627     Br  0.61211498  0.36650581  0.49289532    -0.01700
Br1628     Br  0.54423951  0.31946968  0.46652970    -0.01800
Br1629     Br  0.71120096  0.27800964  0.04012915    -0.01700
Br1630     Br  0.63154846  0.23315968  0.03377230    -0.01700
C1631       C  0.89575607  0.29537775  0.49533282    -0.02800
C1632       C  0.91835069  0.27830255  0.01533709     0.06800
C1633       C  0.90186965  0.27726087  0.04348059    -0.03000
C1634       C  0.86563695  0.29392485  0.05118160    -0.03000
C1635       C  0.84528001  0.31179516  0.03139165     0.07000
C1636       C  0.85776592  0.31030528  0.00286685    -0.03200
Br1637     Br  0.82430004  0.32951460  0.47387544    -0.01700
Br1638     Br  0.92209139  0.30499637  0.45970977    -0.01800
Br1639     Br  0.84224819  0.29135078  0.08896713    -0.01700
Br1640     Br  0.92915276  0.25611367  0.07352930    -0.01700
C1641       C  0.48479604  0.31937436  0.04488589    -0.02800
C1642       C  0.50433054  0.29219165  0.04288281     0.06800
C1643       C  0.02439009  0.28142275  0.06772899    -0.03000
C1644       C  0.02614941  0.29758948  0.09267487    -0.03000
C1645       C  0.49983280  0.32183269  0.09570663     0.07000
C1646       C  0.47877609  0.33257472  0.07139428    -0.03200
Br1647     Br  0.44420794  0.36677180  0.07359552    -0.01700
Br1648     Br  0.47079716  0.34102231  0.01215424    -0.01800
Br1649     Br  0.06621629  0.28649185  0.12181954    -0.01700
Br1650     Br  0.04111250  0.24245435  0.07061044    -0.01700
C1651       C  0.65261449  0.16772279  0.28448813    -0.02800
C1652       C  0.60942642  0.17605747  0.27793326     0.06800
C1653       C  0.60303902  0.19666363  0.25681836    -0.03000
C1654       C  0.63951892  0.20746483  0.24254704    -0.03000
C1655       C  0.68008102  0.20719274  0.25654752     0.07000
C1656       C  0.68807456  0.18208654  0.27246403    -0.03200
Br1657     Br  0.74463867  0.16432723  0.27603676    -0.01700
Br1658     Br  0.66437675  0.13678140  0.30982834    -0.01800
Br1659     Br  0.64337589  0.18887622  0.20672416    -0.01700
Br1660     Br  0.54564138  0.20582975  0.24302639    -0.01700
C1661       C  0.86926541  0.22954111  0.28030189    -0.02800
C1662       C  0.83176453  0.22277664  0.26346227     0.06800
C1663       C  0.83324570  0.19657192  0.24870052    -0.03000
C1664       C  0.86628500  0.17635659  0.25451321    -0.03000
C1665       C  0.89837208  0.18197886  0.27491691     0.07000
C1666       C  0.90139155  0.20897581  0.28628688    -0.03200
Br1667     Br  0.95130950  0.21741538  0.30996982    -0.01700
Br1668     Br  0.88261262  0.26598667  0.29477456    -0.01800
Br1669     Br  0.86911372  0.14136578  0.23379953    -0.01700
Br1670     Br  0.79169871  0.18826897  0.21911548    -0.01700
C1671       C  0.90160374  0.03608685  0.28349062    -0.02800
C1672       C  0.89192480  0.06472377  0.28691598     0.06800
C1673       C  0.84855471  0.07382211  0.28613001    -0.03000
C1674       C  0.81544213  0.05528300  0.27776517    -0.03000
C1675       C  0.82359201  0.02551149  0.27498571     0.07000
C1676       C  0.86762348  0.01623270  0.28052328    -0.03200
Br1677     Br  0.88435979  0.47779450  0.28887299    -0.01700
Br1678     Br  0.96197943  0.02425106  0.28360070    -0.01800
Br1679     Br  0.75950753  0.07305734  0.27230356     0.00700
Br1680     Br  0.83392646  0.11167463  0.29859719    -0.01700
C1681       C  0.62829691  0.01562516  0.28932838    -0.02800
C1682       C  0.66364126  0.02080644  0.27022025     0.06800
C1683       C  0.66040530  0.04579529  0.25351760    -0.03000
C1684       C  0.62808663  0.06644997  0.25916283    -0.03000
C1685       C  0.59897116  0.06273782  0.28165078     0.07000
C1686       C  0.59883792  0.03730642  0.29640648    -0.03200
Br1687     Br  0.55852348  0.03273811  0.32749206    -0.01700
Br1688     Br  0.61226266  0.47975414  0.30455957    -0.01800
Br1689     Br  0.62385570  0.10026226  0.23655636    -0.01700
Br1690     Br  0.69823140  0.05187457  0.22157101    -0.01700
C1691       C  0.47339377  0.17264775  0.41923537    -0.02800
C1692       C  0.49203336  0.18299222  0.39425511     0.06800
C1693       C  0.01197448  0.20954603  0.39439498    -0.03000
C1694       C  0.01137993  0.22612542  0.41914045    -0.03000
C1695       C  0.99700147  0.21464622  0.44526341     0.07000
C1696       C  0.47981821  0.18688243  0.44490603    -0.03200
Br1697     Br  0.46843617  0.16567069  0.47837949    -0.01700
Br1698     Br  0.43855355  0.13877173  0.41862705    -0.01800
Br1699     Br  0.02273418  0.26582367  0.41538264    -0.01700
Br1700     Br  0.03807425  0.22376745  0.36029579    -0.01700
C1701       C  0.88731030  0.02116056  0.46329316    -0.02800
C1702       C  0.92224397  0.02913451  0.48148215     0.06800
C1703       C  0.92041599  0.05628696  0.49390226    -0.03000
C1704       C  0.88933420  0.07635659  0.48495867    -0.03000
C1705       C  0.85770746  0.06927547  0.46462522     0.07000
C1706       C  0.85495333  0.04113648  0.45542618    -0.03200
Br1707     Br  0.80385321  0.02952841  0.43445486    -0.01700
Br1708     Br  0.87981256  0.48319831  0.95006774    -0.01800
Br1709     Br  0.89056722  0.11359261  0.50085523    -0.01700
Br1710     Br  0.95620326  0.06484488  0.52643891    -0.01700
C1711       C  0.64087376  0.04321287  0.44675148    -0.02800
C1712       C  0.65756592  0.06232243  0.46647486     0.06800
C1713       C  0.64336657  0.06044020  0.49456590    -0.03000
C1714       C  0.60656210  0.04393381  0.50132446    -0.03000
C1715       C  0.58618904  0.02641772  0.48073017     0.07000
C1716       C  0.60537450  0.02566738  0.45328831    -0.03200
Br1717     Br  0.58390155  0.50319953  0.42262548    -0.01700
Br1718     Br  0.67049239  0.03921967  0.41139198    -0.01800
Br1719     Br  0.57865260  0.05175341  0.53676153    -0.01700
Br1720     Br  0.67403371  0.08050475  0.52390303    -0.01700
C1721       C  0.98723610  0.02848883  0.42362137    -0.02800
C1722       C  0.00242057  0.03965143  0.44975872     0.06800
C1723       C  0.51834554  0.06776569  0.44961308    -0.03000
C1724       C  0.52296253  0.08273351  0.42407548    -0.03000
C1725       C  0.00497247  0.07213915  0.39893941     0.07000
C1726       C  0.98570102  0.04536522  0.39903260    -0.03200
Br1727     Br  0.95851890  0.03140768  0.36506803    -0.01700
Br1728     Br  0.97594850  0.98883071  0.41936275    -0.01800
Br1729     Br  0.55425672  0.11804501  0.42366280    -0.01700
Br1730     Br  0.53092239  0.08807498  0.48346421    -0.01700
C1731       C  0.88994792  0.42468178  0.01029848    -0.02800
C1732       C  0.85734539  0.43236585  0.02968199     0.06800
C1733       C  0.85189182  0.46093655  0.03626073    -0.03000
C1734       C  0.88477810  0.48057171  0.02968484    -0.03000
C1735       C  0.92191565  0.47192757  0.01369071     0.07000
C1736       C  0.92123215  0.44452012  0.00172856    -0.03200
Br1737     Br  0.95871148  0.43532578  0.97027736    -0.01700
Br1738     Br  0.88992236  0.38777094  0.99367745    -0.01800
Br1739     Br  0.87463566  0.01853923  0.04193035    -0.01700
Br1740     Br  0.79514899  0.47343850  0.04888758    -0.01700
C1741       C  0.60719948  0.45834033  0.99756810    -0.02800
C1742       C  0.58589098  0.47532031  0.01816854     0.06800
C1743       C  0.60403618  0.47561991  0.04603868    -0.03000
C1744       C  0.63982232  0.45806568  0.05294885    -0.03000
C1745       C  0.65894081  0.44057536  0.03246176     0.07000
C1746       C  0.64545181  0.44310151  0.00418952    -0.03200
Br1747     Br  0.67812035  0.42495905  0.47434997    -0.01700
Br1748     Br  0.57868734  0.44885976  0.46258629    -0.01800
Br1749     Br  0.66443730  0.45868116  0.09064469    -0.01700
Br1750     Br  0.58012575  0.49713181  0.07679350    -0.01700
C1751       C  0.52802021  0.42008992  0.07438133    -0.02800
C1752       C  0.00867549  0.43033881  0.09922421     0.06800
C1753       C  0.98541153  0.45595492  0.09811136    -0.03000
C1754       C  0.98489492  0.47233539  0.07317586    -0.03000
C1755       C  0.00167134  0.46140338  0.04742989     0.07000
C1756       C  0.52068772  0.43398841  0.04842447    -0.03200
Br1757     Br  0.53214194  0.41271169  0.01520567    -0.01700
Br1758     Br  0.56347343  0.38618597  0.07551971    -0.01800
Br1759     Br  0.96891696  0.51142576  0.07659127    -0.01700
Br1760     Br  0.95560899  0.46931683  0.13110896    -0.01700
C1761       C  0.00260838  0.48001633  0.52102718     0.01300
C1762       C  0.54344763  0.49015908  0.51012795     0.01300
C1763       C  0.54373149  0.01140582  0.98810172     0.01300
C1764       C  0.50311887  0.02104722  0.97607746     0.01300
C1765       C  0.96240992  0.01127715  0.98738888     0.01300
C1766       C  0.96213110  0.48966058  0.50872525     0.01300
O1767       O  0.94752102  0.09796987  0.77654775    -0.82800
C1768       C  0.49451906  0.16427447  0.86940902     0.96600
O1769       O  0.96098254  0.15974156  0.85468789    -0.71900
O1770       O  0.91731675  0.14704990  0.80834230    -0.75500
Al1771     Al  0.94858992  0.12517216  0.83606199     1.49000
C1772       C  0.92783292  0.15973300  0.78590371     0.91800
O1773       O  0.54926239  0.14493553  0.77335640    -0.81700
O1774       O  0.57999042  0.10096744  0.81095039    -0.75300
Al1775     Al  0.99830203  0.12184111  0.77903571     1.90100
O1776       O  0.56831158  0.15815542  0.81603075    -0.74300
O1777       O  0.53715402  0.09368234  0.85866869    -0.74200
O1778       O  0.52946288  0.15083672  0.86496572    -0.79900
O1779       O  0.96868370  0.10343631  0.86773588    -0.78100
O1780       O  0.49870203  0.12435324  0.81701812    -1.14200
O1781       O  0.92978306  0.09080515  0.82081547    -0.73400
C1782       C  0.92582184  0.08498909  0.79509195     0.97300
C1783       C  0.57272628  0.15966462  0.78963261     0.93700
Al1784     Al  0.54920271  0.12585256  0.83586843     1.55600
O1785       O  0.96390062  0.15488115  0.77413922    -0.78000
C1786       C  0.00344986  0.09023406  0.87343713     0.97900
C1787       C  0.56901281  0.08543669  0.79054433     0.92800
O1788       O  0.53254842  0.08847167  0.77859200    -0.83300
C1789       C  0.99791618  0.23281690  0.97169352     0.01300
C1790       C  0.95815101  0.24270379  0.98425754     0.01300
C1791       C  0.96009373  0.26372034  0.50628183     0.01300
C1792       C  0.00158308  0.27375085  0.51640455     0.01300
C1793       C  0.54120889  0.26380649  0.50345895     0.01300
C1794       C  0.53927850  0.24219166  0.98236812     0.01300
O1795       O  0.54819229  0.35094969  0.72420211    -0.82800
C1796       C  0.00663779  0.41175825  0.62446964     0.96600
O1797       O  0.54083718  0.40482456  0.63782424    -0.71900
O1798       O  0.57913499  0.39758005  0.68749472    -0.75500
Al1799     Al  0.55136422  0.37265905  0.66154970     1.49000
C1800       C  0.56616706  0.41255829  0.70790397     0.91800
O1801       O  0.94625654  0.39755204  0.72099138    -0.81700
O1802       O  0.91899276  0.35041037  0.68294118    -0.75300
Al1803     Al  0.99726111  0.37433852  0.71705079     1.90100
O1804       O  0.92800708  0.40880051  0.67790202    -0.74300
O1805       O  0.96358700  0.34435951  0.63472245    -0.74200
O1806       O  0.97039346  0.40124546  0.63077126    -0.79900
O1807       O  0.53451281  0.34836446  0.63160659    -0.78100
O1808       O  0.99942190  0.37426488  0.67880825    -1.14200
O1809       O  0.56983598  0.33963838  0.68186368    -0.73400
C1810       C  0.57103393  0.33561360  0.70823600     0.97300
C1811       C  0.92447899  0.41257642  0.70409734     0.93700
Al1812     Al  0.94976060  0.37600101  0.65866642     1.55600
O1813       O  0.53018294  0.40788932  0.71977236    -0.78000
C1814       C  0.49918604  0.33841204  0.62256468     0.97900
C1815       C  0.92885256  0.33619449  0.70478199     0.92800
O1816       O  0.96349618  0.34095304  0.71841237    -0.83300
C1817       C  0.74445299  0.00881460  0.78223457     0.01300
C1818       C  0.70452880  0.00219973  0.76713301     0.01300
C1819       C  0.70687230  0.48421297  0.74297726     0.01300
C1820       C  0.74774368  0.47729904  0.73011997     0.01300
C1821       C  0.78727627  0.48792706  0.74266154     0.01300
C1822       C  0.78559135  0.00569363  0.76747092     0.01300
O1823       O  0.69928360  0.35652358  0.52302998    -0.82800
C1824       C  0.74634765  0.41193976  0.62359408     0.96600
O1825       O  0.71184833  0.40427827  0.61120819    -0.71900
O1826       O  0.67301723  0.40072913  0.56129225    -0.75500
Al1827     Al  0.70024956  0.37350652  0.58610062     1.49000
C1828       C  0.68679449  0.41654529  0.54156592     0.91800
O1829       O  0.80532397  0.39593516  0.52522332    -0.81700
O1830       O  0.83008017  0.35003633  0.56204247    -0.75300
Al1831     Al  0.75217444  0.37611357  0.53028483     1.90100
O1832       O  0.82270684  0.40866999  0.56786352    -0.74300
O1833       O  0.78908100  0.34420001  0.61059973    -0.74200
O1834       O  0.78276492  0.40181562  0.61625014    -0.79900
O1835       O  0.71791721  0.34663990  0.61407919    -0.78100
O1836       O  0.75139256  0.37528564  0.56834650    -1.14200
O1837       O  0.68048648  0.34180114  0.56469574    -0.73400
C1838       C  0.67727687  0.34037775  0.53823062     0.97300
C1839       C  0.82697025  0.41123985  0.54155727     0.93700
Al1840     Al  0.80177357  0.37612490  0.58738132     1.55600
O1841       O  0.72256870  0.41139757  0.52929093    -0.78000
C1842       C  0.75392683  0.33603194  0.62158533     0.97900
C1843       C  0.81697432  0.33516257  0.54135904     0.92800
O1844       O  0.78169382  0.34090982  0.52867723    -0.83300
C1845       C  0.75028587  0.23244583  0.77254952     0.01300
C1846       C  0.79100407  0.24143912  0.76019740     0.01300
C1847       C  0.78906330  0.26066786  0.73697508     0.01300
C1848       C  0.74809654  0.26675696  0.72343258     0.01300
C1849       C  0.70871937  0.25359550  0.73299814     0.01300
C1850       C  0.71261481  0.23170976  0.75425827     0.01300
O1851       O  0.80386998  0.10527781  0.97035419    -0.82800
C1852       C  0.75067698  0.16389363  0.87319009     0.96600
O1853       O  0.78470566  0.16014385  0.88769006    -0.71900
O1854       O  0.82939347  0.15339033  0.93435171    -0.75500
Al1855     Al  0.80131880  0.12761596  0.90858376     1.49000
C1856       C  0.81604919  0.16803827  0.95504029     0.91800
O1857       O  0.69836236  0.14868782  0.96926549    -0.81700
O1858       O  0.67195321  0.10067017  0.93556956    -0.75300
Al1859     Al  0.75109511  0.12689298  0.96550664     1.90100
O1860       O  0.67899472  0.15803165  0.92562369    -0.74300
O1861       O  0.71686219  0.09173823  0.88965511    -0.74200
O1862       O  0.71808857  0.14828566  0.87736041    -0.79900
O1863       O  0.78366524  0.10231770  0.87822714    -0.78100
O1864       O  0.75117584  0.12642487  0.92758625    -1.14200
O1865       O  0.82438023  0.09515329  0.92721056    -0.73400
C1866       C  0.82691559  0.09097193  0.95348799     0.97300
C1867       C  0.67587697  0.16269629  0.95169266     0.93700
Al1868     Al  0.70087982  0.12483219  0.90874046     1.55600
O1869       O  0.78115146  0.16181388  0.96747836    -0.78000
C1870       C  0.75028939  0.08724625  0.87480395     0.97900
C1871       C  0.68515238  0.08614153  0.95642483     0.92800
O1872       O  0.72079400  0.09194671  0.96837124    -0.83300
C1873       C  0.78789086  0.19669177  0.83835804    -0.02800
C1874       C  0.74912598  0.18651799  0.85098665     0.06800
C1875       C  0.70924465  0.19988049  0.84292639    -0.03000
C1876       C  0.70839490  0.21881201  0.81956966    -0.03000
C1877       C  0.74753263  0.22350785  0.80389241     0.07000
C1878       C  0.78560117  0.21958620  0.81978290    -0.03200
Br1879     Br  0.80326415  0.25343831  0.83842099    -0.01700
Br1880     Br  0.84535629  0.18241508  0.84663779    -0.01800
Br1881     Br  0.65481015  0.23912306  0.81203238    -0.01700
Br1882     Br  0.65576119  0.19299276  0.86336157    -0.01700
C1883       C  0.74559394  0.27140999  0.66997820    -0.02800
C1884       C  0.74766336  0.28445193  0.69688647     0.06800
C1885       C  0.75412454  0.31391768  0.69773134    -0.03000
C1886       C  0.76348267  0.32892913  0.67297901    -0.03000
C1887       C  0.75522295  0.31695636  0.64651238     0.07000
C1888       C  0.74493235  0.28808819  0.64517660    -0.03200
Br1889     Br  0.73022446  0.27115637  0.60986414    -0.01700
Br1890     Br  0.74527146  0.23080549  0.66640862    -0.01800
Br1891     Br  0.79047534  0.36531772  0.67536468    -0.01700
Br1892     Br  0.74375158  0.33548529  0.73090745    -0.01700
C1893       C  0.72162958  0.42077034  0.67312546    -0.02800
C1894       C  0.74381280  0.43053456  0.64917556     0.06800
C1895       C  0.76755354  0.45581569  0.65169986    -0.03000
C1896       C  0.76600362  0.47183782  0.67704881    -0.03000
C1897       C  0.74903734  0.46005587  0.70237252     0.07000
C1898       C  0.73019529  0.43278986  0.69975727    -0.03200
Br1899     Br  0.72556420  0.40744695  0.73066244    -0.01700
Br1900     Br  0.68178580  0.38934440  0.67035977    -0.01800
Br1901     Br  0.78181488  0.01103589  0.67510670    -0.01700
Br1902     Br  0.80107020  0.46914688  0.62037700    -0.01700
C1903       C  0.78573712  0.04632588  0.84839315    -0.02800
C1904       C  0.74886101  0.06389885  0.85353830     0.06800
C1905       C  0.70865468  0.05558967  0.84118005    -0.03000
C1906       C  0.70642664  0.03036568  0.82591338    -0.03000
C1907       C  0.74416886  0.02103210  0.81243020     0.07000
C1908       C  0.78166121  0.02322347  0.82966287    -0.03200
Br1909     Br  0.81225798  0.98912550  0.83880003    -0.01700
Br1910     Br  0.84076939  0.05217250  0.86702970    -0.01800
Br1911     Br  0.68325718  0.00127142  0.84953994    -0.01700
Br1912     Br  0.65422680  0.07454817  0.84786908    -0.01700
C1913       C  0.65982214  0.29401053  0.74888836    -0.02800
C1914       C  0.66656644  0.27098627  0.73002684     0.06800
C1915       C  0.63527625  0.26829340  0.70770886    -0.03000
C1916       C  0.59859429  0.28620440  0.70648764    -0.03000
C1917       C  0.59918487  0.31229479  0.71995690     0.07000
C1918       C  0.62934255  0.31576550  0.74223395    -0.03200
Br1919     Br  0.63144472  0.35052480  0.76266486    -0.01700
Br1920     Br  0.69449828  0.29768581  0.78276612    -0.01800
Br1921     Br  0.54478538  0.27368387  0.68967907    -0.01700
Br1922     Br  0.64347519  0.24762605  0.67365844    -0.01700
C1923       C  0.88572790  0.29228833  0.69662243    -0.02800
C1924       C  0.89812658  0.31434599  0.71467992     0.06800
C1925       C  0.87848621  0.31654180  0.74144819    -0.03000
C1926       C  0.84045899  0.30104251  0.74735292    -0.03000
C1927       C  0.82859817  0.27803393  0.72981057     0.07000
C1928       C  0.85393489  0.27281712  0.70533702    -0.03200
Br1929     Br  0.84966550  0.23825028  0.68481720    -0.01700
Br1930     Br  0.91462519  0.28755950  0.66069438    -0.01800
Br1931     Br  0.80687351  0.31101408  0.78064303    -0.01700
Br1932     Br  0.90570497  0.33847622  0.77104416    -0.01700
C1933       C  0.85715561  0.42394577  0.73153482    -0.02800
C1934       C  0.89249979  0.43344648  0.71541045     0.06800
C1935       C  0.89827714  0.46281394  0.71234160    -0.03000
C1936       C  0.86441922  0.48186773  0.72016172    -0.03000
C1937       C  0.82783371  0.47155965  0.73540484     0.07000
C1938       C  0.82845113  0.44312835  0.74401377    -0.03200
Br1939     Br  0.79693613  0.43184113  0.77746753    -0.01700
Br1940     Br  0.84552248  0.38478912  0.73589417    -0.01800
Br1941     Br  0.87206291  0.52153439  0.71265093    -0.01700
Br1942     Br  0.95504373  0.47676039  0.70248360    -0.01700
C1943       C  0.61181162  0.43341079  0.74598241    -0.02800
C1944       C  0.59511513  0.43494434  0.71836007     0.06800
C1945       C  0.61178803  0.45501117  0.69940761    -0.03000
C1946       C  0.64613769  0.47270799  0.70772271    -0.03000
C1947       C  0.66658842  0.46875671  0.73440666     0.07000
C1948       C  0.65019609  0.44786656  0.75292399    -0.03200
Br1949     Br  0.68328808  0.43559986  0.78615799    -0.01700
Br1950     Br  0.58149664  0.41252318  0.77473030    -0.01800
Br1951     Br  0.66588397  0.00015319  0.68079654    -0.01700
Br1952     Br  0.58671056  0.45875733  0.66206416    -0.01700
C1953       C  0.61258481  0.17719823  0.98163642    -0.02800
C1954       C  0.64446084  0.18424932  0.96162782     0.06800
C1955       C  0.64600341  0.21191770  0.95090987    -0.03000
C1956       C  0.61335416  0.23178059  0.95810459    -0.03000
C1957       C  0.57851370  0.22388585  0.97621489     0.07000
C1958       C  0.58028261  0.19690688  0.98913530    -0.03200
Br1959     Br  0.54378256  0.18855417  0.02121428    -0.01700
Br1960     Br  0.61304869  0.14056164  0.99926451    -0.01800
Br1961     Br  0.62051295  0.26959342  0.94439208    -0.01700
Br1962     Br  0.69536411  0.22311759  0.92818989    -0.01700
C1963       C  0.85908988  0.19364742  0.99242629    -0.02800
C1964       C  0.84283640  0.19229965  0.96473020     0.06800
C1965       C  0.85714323  0.21215986  0.94500952    -0.03000
C1966       C  0.89371939  0.22919511  0.95066501    -0.03000
C1967       C  0.91504315  0.22795680  0.97761065     0.07000
C1968       C  0.89606712  0.21021756  0.99851466    -0.03200
Br1969     Br  0.92625762  0.20191431  0.03319782    -0.01700
Br1970     Br  0.83085091  0.17276678  0.02216528    -0.01800
Br1971     Br  0.91402791  0.25097250  0.91915784    -0.01700
Br1972     Br  0.82252395  0.21798111  0.91139693    -0.01700
C1973       C  0.58253600  0.30890518  0.49727774    -0.02800
C1974       C  0.58227096  0.28096353  0.50804001     0.06800
C1975       C  0.62044217  0.27152160  0.52280086    -0.03000
C1976       C  0.65360737  0.29088992  0.52961900    -0.03000
C1977       C  0.64739566  0.31976060  0.52496279     0.07000
C1978       C  0.61383402  0.32842552  0.50661075    -0.03200
Br1979     Br  0.61211681  0.36650430  0.99289452    -0.01700
Br1980     Br  0.54423962  0.31946885  0.96653022    -0.01800
Br1981     Br  0.71119959  0.27801137  0.54013090    -0.01700
Br1982     Br  0.63154902  0.23316077  0.53377162    -0.01700
C1983       C  0.89575568  0.29537595  0.99533441    -0.02800
C1984       C  0.91835081  0.27830410  0.51533547     0.06800
C1985       C  0.90187052  0.27726323  0.54347910    -0.03000
C1986       C  0.86563982  0.29392876  0.55118062    -0.03000
C1987       C  0.84528195  0.31179856  0.53139048     0.07000
C1988       C  0.85776696  0.31030788  0.50286548    -0.03200
Br1989     Br  0.82429864  0.32951156  0.97387671    -0.01700
Br1990     Br  0.92209107  0.30499538  0.95971161    -0.01800
Br1991     Br  0.84225683  0.29135823  0.58896782    -0.01700
Br1992     Br  0.92915226  0.25611450  0.57352725    -0.01700
C1993       C  0.48479523  0.31937529  0.54488534    -0.02800
C1994       C  0.50433035  0.29219276  0.54288192     0.06800
C1995       C  0.02438982  0.28142377  0.56772846    -0.03000
C1996       C  0.02614923  0.29759053  0.59267430    -0.03000
C1997       C  0.49983232  0.32183340  0.59570615     0.07000
C1998       C  0.47877475  0.33257521  0.57139397    -0.03200
Br1999     Br  0.44420518  0.36677160  0.57359578    -0.01700
Br2000     Br  0.47079649  0.34102359  0.51215385    -0.01800
Br2001     Br  0.06621844  0.28649395  0.62181797    -0.01700
Br2002     Br  0.04111197  0.24245538  0.57061019    -0.01700
C2003       C  0.65261262  0.16772452  0.78448823    -0.02800
C2004       C  0.60942465  0.17605989  0.77793405     0.06800
C2005       C  0.60303699  0.19666690  0.75682009    -0.03000
C2006       C  0.63951646  0.20746748  0.74254795    -0.03000
C2007       C  0.68007970  0.20719403  0.75654719     0.07000
C2008       C  0.68807275  0.18208764  0.77246355    -0.03200
Br2009     Br  0.74463634  0.16432761  0.77603616    -0.01700
Br2010     Br  0.66437469  0.13678372  0.80982931    -0.01800
Br2011     Br  0.64336842  0.18887943  0.70672460    -0.01700
Br2012     Br  0.54563880  0.20583524  0.74303048    -0.01700
C2013       C  0.86926366  0.22954118  0.78030271    -0.02800
C2014       C  0.83176347  0.22277683  0.76346255     0.06800
C2015       C  0.83324493  0.19657229  0.74870046    -0.03000
C2016       C  0.86628483  0.17635727  0.75451265    -0.03000
C2017       C  0.89837095  0.18197923  0.77491705     0.07000
C2018       C  0.90138936  0.20897578  0.78628812    -0.03200
Br2019     Br  0.95130474  0.21741467  0.80997358    -0.01700
Br2020     Br  0.88261017  0.26598686  0.79477541    -0.01800
Br2021     Br  0.86911559  0.14136737  0.73379746    -0.01700
Br2022     Br  0.79169752  0.18826893  0.71911582    -0.01700
C2023       C  0.90160357  0.03608664  0.78348954    -0.02800
C2024       C  0.89192519  0.06472373  0.78691449     0.06800
C2025       C  0.84855528  0.07382239  0.78612749    -0.03000
C2026       C  0.81544279  0.05528352  0.77776197    -0.03000
C2027       C  0.82359183  0.02551188  0.77498353     0.07000
C2028       C  0.86762287  0.01623275  0.78052203    -0.03200
Br2029     Br  0.88436110  0.47779364  0.78887217    -0.01700
Br2030     Br  0.96197895  0.02425022  0.78360013    -0.01800
Br2031     Br  0.75950927  0.07305833  0.77229775     0.00700
Br2032     Br  0.83392681  0.11167491  0.79859442    -0.01700
C2033       C  0.62829583  0.01562747  0.78932620    -0.02800
C2034       C  0.66364002  0.02080856  0.77021782     0.06800
C2035       C  0.66040391  0.04579751  0.75351529    -0.03000
C2036       C  0.62808597  0.06645252  0.75916120    -0.03000
C2037       C  0.59897155  0.06274057  0.78164975     0.07000
C2038       C  0.59883795  0.03730905  0.79640509    -0.03200
Br2039     Br  0.55852353  0.03274075  0.82749074    -0.01700
Br2040     Br  0.61226707  0.47975224  0.80456320    -0.01800
Br2041     Br  0.62385404  0.10026468  0.73655457    -0.01700
Br2042     Br  0.69822782  0.05187616  0.72156753    -0.01700
C2043       C  0.47339166  0.17264871  0.91923474    -0.02800
C2044       C  0.49203160  0.18299341  0.89425471     0.06800
C2045       C  0.01197368  0.20954647  0.89439484    -0.03000
C2046       C  0.01137917  0.22612563  0.91914046    -0.03000
C2047       C  0.99700016  0.21464630  0.94526322     0.07000
C2048       C  0.47981664  0.18688277  0.94490569    -0.03200
Br2049     Br  0.46843414  0.16567061  0.97837876    -0.01700
Br2050     Br  0.43855081  0.13877300  0.91862573    -0.01800
Br2051     Br  0.02273359  0.26582388  0.91538298    -0.01700
Br2052     Br  0.03807614  0.22376755  0.86029636    -0.01700
C2053       C  0.88731011  0.02116100  0.96329235    -0.02800
C2054       C  0.92224341  0.02913531  0.98148153     0.06800
C2055       C  0.92041555  0.05628803  0.99390089    -0.03000
C2056       C  0.88933425  0.07635754  0.98495649    -0.03000
C2057       C  0.85770761  0.06927597  0.96462311     0.07000
C2058       C  0.85495368  0.04113691  0.95542441    -0.03200
Br2059     Br  0.80385498  0.02952875  0.93445160    -0.01700
Br2060     Br  0.87981153  0.48319857  0.45006797    -0.01800
Br2061     Br  0.89056846  0.11359417  0.00085134    -0.01700
Br2062     Br  0.95620261  0.06484667  0.02643752    -0.01700
C2063       C  0.64087385  0.04321306  0.94675108    -0.02800
C2064       C  0.65756677  0.06232238  0.96647435     0.06800
C2065       C  0.64336815  0.06044019  0.99456552    -0.03000
C2066       C  0.60656295  0.04393463  0.00132429    -0.03000
C2067       C  0.58618865  0.02641900  0.98073010     0.07000
C2068       C  0.60537373  0.02566837  0.95328804    -0.03200
Br2069     Br  0.58390317  0.50319832  0.92262544    -0.01700
Br2070     Br  0.67049323  0.03921875  0.91139181    -0.01800
Br2071     Br  0.57865439  0.05175511  0.03676147    -0.01700
Br2072     Br  0.67403791  0.08050318  0.02390259    -0.01700
C2073       C  0.98723555  0.02848986  0.92362157    -0.02800
C2074       C  0.00242030  0.03965262  0.94975880     0.06800
C2075       C  0.51834554  0.06776707  0.94961285    -0.03000
C2076       C  0.52296242  0.08273477  0.92407513    -0.03000
C2077       C  0.00497234  0.07213984  0.89893908     0.07000
C2078       C  0.98570089  0.04536590  0.89903255    -0.03200
Br2079     Br  0.95851992  0.03140767  0.86506788    -0.01700
Br2080     Br  0.97594736  0.98883174  0.91936350    -0.01800
Br2081     Br  0.55425700  0.11804613  0.92366211    -0.01700
Br2082     Br  0.53092352  0.08807635  0.98346387    -0.01700
C2083       C  0.88994642  0.42468403  0.51029976    -0.02800
C2084       C  0.85734315  0.43236873  0.52968248     0.06800
C2085       C  0.85188974  0.46093954  0.53626075    -0.03000
C2086       C  0.88477628  0.48057446  0.52968461    -0.03000
C2087       C  0.92191426  0.47192977  0.51369109     0.07000
C2088       C  0.92123084  0.44452207  0.50172959    -0.03200
Br2089     Br  0.95871019  0.43532700  0.47027858    -0.01700
Br2090     Br  0.88992227  0.38777239  0.49368063    -0.01800
Br2091     Br  0.87463574  0.01853658  0.54193020    -0.01700
Br2092     Br  0.79514737  0.47344183  0.54888832    -0.01700
C2093       C  0.60719854  0.45834282  0.49757009    -0.02800
C2094       C  0.58588968  0.47532259  0.51817045     0.06800
C2095       C  0.60403387  0.47562160  0.54604090    -0.03000
C2096       C  0.63981895  0.45806653  0.55295141    -0.03000
C2097       C  0.65893813  0.44057667  0.53246414     0.07000
C2098       C  0.64545048  0.44310381  0.50419171    -0.03200
Br2099     Br  0.67812069  0.42495569  0.97434794    -0.01700
Br2100     Br  0.57868761  0.44885703  0.96258457    -0.01800
Br2101     Br  0.66443157  0.45868047  0.59064792    -0.01700
Br2102     Br  0.58012377  0.49713425  0.57679539    -0.01700
C2103       C  0.52801866  0.42009128  0.57438184    -0.02800
C2104       C  0.00867538  0.43033971  0.59922439     0.06800
C2105       C  0.98541156  0.45595588  0.59811208    -0.03000
C2106       C  0.98489338  0.47233641  0.57317654    -0.03000
C2107       C  0.00166989  0.46140486  0.54743035     0.07000
C2108       C  0.52068616  0.43399025  0.54842524    -0.03200
Br2109     Br  0.53214083  0.41271400  0.51520624    -0.01700
Br2110     Br  0.56347129  0.38618704  0.57551966    -0.01800
Br2111     Br  0.96891243  0.51142630  0.57659192    -0.01700
Br2112     Br  0.95561221  0.46931792  0.63111086    -0.01700
C2113       C  0.00260759  0.98004147  0.02096120     0.01300
C2114       C  0.54344362  0.99019338  0.01005323     0.01300
C2115       C  0.54372240  0.51137485  0.48818048     0.01300
C2116       C  0.50309833  0.52101449  0.47615890     0.01300
C2117       C  0.96239015  0.51124655  0.48745758     0.01300
C2118       C  0.96213451  0.98967583  0.00864852     0.01300
O2119       O  0.94759285  0.59794645  0.27667308    -0.82800
C2120       C  0.49432218  0.66430634  0.36958733     0.96600
O2121       O  0.96081713  0.65980051  0.35482649    -0.71900
O2122       O  0.91726918  0.64713308  0.30841326    -0.75500
Al2123     Al  0.94843078  0.62524047  0.33617508     1.49000
C2124       C  0.92781276  0.65975659  0.28594506     0.91800
O2125       O  0.54928727  0.64494351  0.27359372    -0.81700
O2126       O  0.57994185  0.60095962  0.31125472    -0.75300
Al2127     Al  0.99833144  0.62183606  0.27920949     1.90100
O2128       O  0.56833310  0.65813944  0.31628107    -0.74300
O2129       O  0.53689354  0.59371370  0.35887633    -0.74200
O2130       O  0.52926563  0.65086143  0.36516597    -0.79900
O2131       O  0.96840939  0.60350241  0.36787799    -0.78100
O2132       O  0.49861341  0.62438508  0.31719121    -1.14200
O2133       O  0.92959004  0.59088198  0.32091123    -0.73400
C2134       C  0.92578244  0.58500941  0.29518990     0.97300
C2135       C  0.57275938  0.65965512  0.28988237     0.93700
Al2136     Al  0.54907593  0.62586321  0.33610493     1.55600
O2137       O  0.96389364  0.65486068  0.27421095    -0.78000
C2138       C  0.00315455  0.59028856  0.37360848     0.97900
C2139       C  0.56903275  0.58542683  0.29083834     0.92800
O2140       O  0.53260601  0.58846627  0.27883923    -0.83300
C2141       C  0.99786991  0.73279602  0.47189768     0.01300
C2142       C  0.95807279  0.74267478  0.48442808     0.01300
C2143       C  0.95993848  0.76370431  0.00643906     0.01300
C2144       C  0.00139645  0.77377214  0.01656392     0.01300
C2145       C  0.54105891  0.76386473  0.00363613     0.01300
C2146       C  0.53920579  0.74221438  0.48257723     0.01300
O2147       O  0.54813081  0.85101696  0.22419088    -0.82800
C2148       C  0.00634132  0.91178662  0.12446169     0.96600
O2149       O  0.54054537  0.90495405  0.13786491    -0.71900
O2150       O  0.57900681  0.89764716  0.18748649    -0.75500
Al2151     Al  0.55116079  0.87275414  0.16154794     1.49000
C2152       C  0.56609293  0.91261195  0.20791888     0.91800
O2153       O  0.94621506  0.89768311  0.22101330    -0.81700
O2154       O  0.91878691  0.85053396  0.18312272    -0.75300
Al2155     Al  0.99718321  0.87442538  0.21709932     1.90100
O2156       O  0.92797730  0.90889971  0.17790472    -0.74300
O2157       O  0.96331881  0.84432308  0.13490922    -0.74200
O2158       O  0.97014923  0.90119064  0.13074603    -0.79900
O2159       O  0.53421027  0.84848164  0.13160912    -0.78100
O2160       O  0.99926950  0.87433302  0.17885730    -1.14200
O2161       O  0.56969863  0.83971397  0.18182554    -0.73400
C2162       C  0.57097267  0.83569730  0.20819725     0.97300
C2163       C  0.92449505  0.91272030  0.20409212     0.93700
Al2164     Al  0.94957140  0.87603803  0.15875063     1.55600
O2165       O  0.53012152  0.90795908  0.21980046    -0.78000
C2166       C  0.49887847  0.83844568  0.12267110     0.97900
C2167       C  0.92870292  0.83630832  0.20494735     0.92800
O2168       O  0.96339908  0.84105006  0.21852202    -0.83300
C2169       C  0.74449888  0.50882104  0.28229447     0.01300
C2170       C  0.70455340  0.50219419  0.26720892     0.01300
C2171       C  0.70685742  0.98423801  0.24290212     0.01300
C2172       C  0.74772308  0.97738085  0.23002102     0.01300
C2173       C  0.78724062  0.98801645  0.24257011     0.01300
C2174       C  0.78563194  0.50565807  0.26752839     0.01300
O2175       O  0.69915338  0.85666639  0.02296136    -0.82800
C2176       C  0.74633120  0.91207329  0.12349687     0.96600
O2177       O  0.71180989  0.90453860  0.11105924    -0.71900
O2178       O  0.67301096  0.90098155  0.06116413    -0.75500
Al2179     Al  0.70007820  0.87374333  0.08601850     1.49000
C2180       C  0.68688772  0.91675324  0.04143633     0.91800
O2181       O  0.80532929  0.89595345  0.02521738    -0.81700
O2182       O  0.82982980  0.84994825  0.06205312    -0.75300
Al2183     Al  0.75210778  0.87619617  0.03022498     1.90100
O2184       O  0.82276736  0.90859086  0.06788124    -0.74300
O2185       O  0.78866975  0.84417118  0.11056210    -0.74200
O2186       O  0.78268779  0.90180643  0.11622535    -0.79900
O2187       O  0.71753629  0.84687752  0.11407784    -0.78100
O2188       O  0.75125951  0.87537815  0.06829069    -1.14200
O2189       O  0.68021788  0.84205103  0.06464585    -0.73400
C2190       C  0.67708128  0.84056823  0.03818197     0.97300
C2191       C  0.82702443  0.91120390  0.04157591     0.93700
Al2192     Al  0.80160689  0.87608439  0.08736807     1.55600
O2193       O  0.72264888  0.91152756  0.02918480    -0.78000
C2194       C  0.75345990  0.83614153  0.12158226     0.97900
C2195       C  0.81671238  0.83511862  0.04134144     0.92800
O2196       O  0.78149954  0.84094668  0.02862568    -0.83300
C2197       C  0.75017907  0.73249446  0.27263533     0.01300
C2198       C  0.79090184  0.74146440  0.26027864     0.01300
C2199       C  0.78896198  0.76071905  0.23707034     0.01300
C2200       C  0.74799823  0.76680621  0.22350333     0.01300
C2201       C  0.70861381  0.75362635  0.23306453     0.01300
C2202       C  0.71251031  0.73174903  0.25434478     0.01300
O2203       O  0.80378262  0.60519813  0.47037674    -0.82800
C2204       C  0.75050785  0.66401280  0.37332290     0.96600
O2205       O  0.78454144  0.66023357  0.38780158    -0.71900
O2206       O  0.82929889  0.65338899  0.43444074    -0.75500
Al2207     Al  0.80117098  0.62766626  0.40864947     1.49000
C2208       C  0.81601148  0.66799610  0.45517285     0.91800
O2209       O  0.69832410  0.64868178  0.46944146    -0.81700
O2210       O  0.67184587  0.60068284  0.43567411    -0.75300
Al2211     Al  0.75103611  0.62686046  0.46560921     1.90100
O2212       O  0.67887211  0.65806819  0.42582178    -0.74300
O2213       O  0.71668541  0.59182637  0.38969711    -0.74200
O2214       O  0.71789496  0.64841414  0.37750780    -0.79900
O2215       O  0.78347403  0.60243440  0.37826980    -0.78100
O2216       O  0.75105460  0.62645343  0.42768334    -1.14200
O2217       O  0.82426336  0.59515752  0.42721036    -0.73400
C2218       C  0.82681664  0.59091883  0.45347877     0.97300
C2219       C  0.67581239  0.66271301  0.45189819     0.93700
Al2220     Al  0.70072753  0.62489623  0.40886315     1.55600
O2221       O  0.78113821  0.66175690  0.46762771    -0.78000
C2222       C  0.75007518  0.58734761  0.37484503     0.97900
C2223       C  0.68506236  0.58614648  0.45651700     0.92800
O2224       O  0.72071829  0.59193669  0.46845076    -0.83300
C2225       C  0.78772759  0.69684576  0.33850114    -0.02800
C2226       C  0.74895020  0.68664787  0.35111515     0.06800
C2227       C  0.70907030  0.69999118  0.34301814    -0.03000
C2228       C  0.70824142  0.71891550  0.31965033    -0.03000
C2229       C  0.74739695  0.72360138  0.30399125     0.07000
C2230       C  0.78542744  0.71974842  0.31993118    -0.03200
Br2231     Br  0.80270302  0.75363022  0.33868603    -0.01700
Br2232     Br  0.84520497  0.68260240  0.34678868    -0.01800
Br2233     Br  0.65471745  0.73928491  0.31209062    -0.01700
Br2234     Br  0.65556211  0.69309859  0.36342070    -0.01700
C2235       C  0.74507016  0.77153357  0.17003764    -0.02800
C2236       C  0.74753066  0.78453582  0.19695348     0.06800
C2237       C  0.75414265  0.81399489  0.19777325    -0.03000
C2238       C  0.76327101  0.82901256  0.17297901    -0.03000
C2239       C  0.75465188  0.81707812  0.14653847     0.07000
C2240       C  0.74411484  0.78824228  0.14525196    -0.03200
Br2241     Br  0.72851696  0.77141230  0.11004726    -0.01700
Br2242     Br  0.74485200  0.73093643  0.16641690    -0.01800
Br2243     Br  0.79030428  0.86540007  0.17527136    -0.01700
Br2244     Br  0.74430852  0.83558015  0.23099954    -0.01700
C2245       C  0.72153342  0.92094413  0.17298480    -0.02800
C2246       C  0.74385142  0.93066455  0.14907130     0.06800
C2247       C  0.76775780  0.95587479  0.15164522    -0.03000
C2248       C  0.76608022  0.97192824  0.17696513    -0.03000
C2249       C  0.74902381  0.96016007  0.20226873     0.07000
C2250       C  0.73012324  0.93291675  0.19962904    -0.03200
Br2251     Br  0.72547403  0.90753017  0.23050096    -0.01700
Br2252     Br  0.68153306  0.88961175  0.17016860    -0.01800
Br2253     Br  0.78188528  0.51092599  0.17524612    -0.01700
Br2254     Br  0.80183298  0.96901762  0.12049533    -0.01700
C2255       C  0.78573598  0.54655751  0.34834815    -0.02800
C2256       C  0.74875524  0.56399567  0.35357743     0.06800
C2257       C  0.70854549  0.55554172  0.34129816    -0.03000
C2258       C  0.70647714  0.53030409  0.32603161    -0.03000
C2259       C  0.74423430  0.52112072  0.31246452     0.07000
C2260       C  0.78176310  0.52342531  0.32965214    -0.03200
Br2261     Br  0.81238901  0.48938203  0.33894701    -0.01700
Br2262     Br  0.84083777  0.55259299  0.36684287    -0.01800
Br2263     Br  0.68375389  0.50109721  0.34971342    -0.01700
Br2264     Br  0.65401579  0.57433580  0.34808364    -0.01700
C2265       C  0.65992270  0.79419067  0.24880551    -0.02800
C2266       C  0.66646942  0.77103326  0.23008594     0.06800
C2267       C  0.63503109  0.76825594  0.20786468    -0.03000
C2268       C  0.59841043  0.78622933  0.20662487    -0.03000
C2269       C  0.59921083  0.81241551  0.21990975     0.07000
C2270       C  0.62959314  0.81599258  0.24203588    -0.03200
Br2271     Br  0.63230396  0.85097687  0.26203124    -0.01700
Br2272     Br  0.69451091  0.79788717  0.28271006    -0.01800
Br2273     Br  0.54440588  0.77366053  0.19013261    -0.01700
Br2274     Br  0.64292643  0.74733383  0.17394325    -0.01700
C2275       C  0.88565306  0.79238147  0.19678682    -0.02800
C2276       C  0.89802130  0.81443388  0.21485834     0.06800
C2277       C  0.87840711  0.81658484  0.24164075    -0.03000
C2278       C  0.84042145  0.80104323  0.24755427    -0.03000
C2279       C  0.82850515  0.77809172  0.22994653     0.07000
C2280       C  0.85381278  0.77292201  0.20545287    -0.03200
Br2281     Br  0.84934499  0.73844979  0.18479198    -0.01700
Br2282     Br  0.91468829  0.78763668  0.16090785    -0.01800
Br2283     Br  0.80685253  0.81097002  0.28087479    -0.01700
Br2284     Br  0.90557170  0.83855233  0.27122820    -0.01700
C2285       C  0.85718546  0.92407542  0.23146755    -0.02800
C2286       C  0.89252039  0.93359674  0.21535910     0.06800
C2287       C  0.89821469  0.96296470  0.21220223    -0.03000
C2288       C  0.86434199  0.98199881  0.22003992    -0.03000
C2289       C  0.82779697  0.97166924  0.23530605     0.07000
C2290       C  0.82843386  0.94323774  0.24391473    -0.03200
Br2291     Br  0.79687228  0.93191160  0.27733032    -0.01700
Br2292     Br  0.84562702  0.88489981  0.23581619    -0.01800
Br2293     Br  0.87189851  0.02167718  0.21253110    -0.01700
Br2294     Br  0.95484610  0.97695742  0.20207524    -0.01700
C2295       C  0.61184704  0.93340536  0.24597371    -0.02800
C2296       C  0.59507092  0.93497467  0.21837259     0.06800
C2297       C  0.61166950  0.95506785  0.19942380    -0.03000
C2298       C  0.64606036  0.97274215  0.20770494    -0.03000
C2299       C  0.66658835  0.96876166  0.23435618     0.07000
C2300       C  0.65024213  0.94786478  0.25288469    -0.03200
Br2301     Br  0.68335137  0.93565990  0.28613520    -0.01700
Br2302     Br  0.58158582  0.91250445  0.27474612    -0.01800
Br2303     Br  0.66601534  0.50010176  0.18081163    -0.01700
Br2304     Br  0.58640513  0.95888798  0.16214067    -0.01700
C2305       C  0.61250049  0.67721210  0.48183246    -0.02800
C2306       C  0.64443412  0.68427709  0.46187083     0.06800
C2307       C  0.64603045  0.71196102  0.45120039    -0.03000
C2308       C  0.61336123  0.73182266  0.45837357    -0.03000
C2309       C  0.57849104  0.72392681  0.47646407     0.07000
C2310       C  0.58025145  0.69694159  0.48937236    -0.03200
Br2311     Br  0.54375925  0.68857181  0.52144655    -0.01700
Br2312     Br  0.61272302  0.64049005  0.49926441    -0.01800
Br2313     Br  0.62050021  0.76961957  0.44461725    -0.01700
Br2314     Br  0.69544779  0.72315626  0.42853002    -0.01700
C2315       C  0.85906748  0.69358750  0.49257453    -0.02800
C2316       C  0.84282012  0.69224148  0.46487513     0.06800
C2317       C  0.85712536  0.71210638  0.44515998    -0.03000
C2318       C  0.89369406  0.72914174  0.45081836    -0.03000
C2319       C  0.91500435  0.72790308  0.47776606     0.07000
C2320       C  0.89604268  0.71015630  0.49866545    -0.03200
Br2321     Br  0.92623841  0.70186997  0.53335375    -0.01700
Br2322     Br  0.83078513  0.67275480  0.52232658    -0.01800
Br2323     Br  0.91401567  0.75091280  0.41930963    -0.01700
Br2324     Br  0.82248928  0.71795581  0.41156308    -0.01700
C2325       C  0.58232033  0.80898618  0.99734063    -0.02800
C2326       C  0.58206851  0.78107586  0.00819499     0.06800
C2327       C  0.62025242  0.77168244  0.02296690    -0.03000
C2328       C  0.65344800  0.79106391  0.02967903    -0.03000
C2329       C  0.64722684  0.81992070  0.02494210     0.07000
C2330       C  0.61364997  0.82853116  0.00658093    -0.03200
Br2331     Br  0.61201431  0.86654848  0.49268610    -0.01700
Br2332     Br  0.54400153  0.81945871  0.46657539    -0.01800
Br2333     Br  0.71109530  0.77821342  0.04011119    -0.01700
Br2334     Br  0.63130239  0.73336640  0.03410491    -0.01700
C2335       C  0.89559301  0.79533276  0.49541755    -0.02800
C2336       C  0.91814931  0.77827641  0.01545023     0.06800
C2337       C  0.90153754  0.77720885  0.04356566    -0.03000
C2338       C  0.86521201  0.79382355  0.05120052    -0.03000
C2339       C  0.84495342  0.81171297  0.03139228     0.07000
C2340       C  0.85754762  0.81023488  0.00288903    -0.03200
Br2341     Br  0.82410712  0.82937950  0.47385108    -0.01700
Br2342     Br  0.92201750  0.80496041  0.45982804    -0.01800
Br2343     Br  0.84149815  0.79113917  0.08890099    -0.01700
Br2344     Br  0.92872459  0.75610415  0.07367296    -0.01700
C2345       C  0.48459228  0.81939652  0.04501204    -0.02800
C2346       C  0.50406989  0.79219677  0.04304359     0.06800
C2347       C  0.02396624  0.78137949  0.06792396    -0.03000
C2348       C  0.02562679  0.79751983  0.09288697    -0.03000
C2349       C  0.49946187  0.82183927  0.09584487     0.07000
C2350       C  0.47854623  0.83261765  0.07150329    -0.03200
Br2351     Br  0.44408742  0.86686315  0.07365664    -0.01700
Br2352     Br  0.47069184  0.84102693  0.01225624    -0.01800
Br2353     Br  0.06527279  0.78626341  0.12220328    -0.01700
Br2354     Br  0.04062389  0.74239873  0.07078797    -0.01700
C2355       C  0.65265312  0.66770416  0.28463107    -0.02800
C2356       C  0.60943788  0.67606853  0.27817868     0.06800
C2357       C  0.60296858  0.69673096  0.25712804    -0.03000
C2358       C  0.63938009  0.70747842  0.24274600    -0.03000
C2359       C  0.67999663  0.70721962  0.25667582     0.07000
C2360       C  0.68806775  0.68210683  0.27257824    -0.03200
Br2361     Br  0.74468736  0.66441795  0.27610532    -0.01700
Br2362     Br  0.66448697  0.63666026  0.30984755    -0.01800
Br2363     Br  0.64306891  0.68862129  0.20704862    -0.01700
Br2364     Br  0.54550645  0.70597783  0.24351182    -0.01700
C2365       C  0.86911360  0.72952606  0.28045529    -0.02800
C2366       C  0.83167067  0.72279166  0.26354766     0.06800
C2367       C  0.83326622  0.69663528  0.24869204    -0.03000
C2368       C  0.86638964  0.67644764  0.25444305    -0.03000
C2369       C  0.89838830  0.68202098  0.27492312     0.07000
C2370       C  0.90129735  0.70898088  0.28638710    -0.03200
Br2371     Br  0.95120283  0.71740906  0.31008807    -0.01700
Br2372     Br  0.88229491  0.76591196  0.29512119    -0.01800
Br2373     Br  0.86951078  0.64159336  0.23351255    -0.01700
Br2374     Br  0.79171703  0.68833900  0.21910324    -0.01700
C2375       C  0.90159960  0.53607173  0.28368517    -0.02800
C2376       C  0.89193022  0.56472819  0.28696321     0.06800
C2377       C  0.84858708  0.57385402  0.28596492    -0.03000
C2378       C  0.81549408  0.55527969  0.27764185    -0.03000
C2379       C  0.82363410  0.52549486  0.27499155     0.07000
C2380       C  0.86762989  0.51621834  0.28064368    -0.03200
Br2381     Br  0.88440970  0.97781884  0.28874687    -0.01700
Br2382     Br  0.96195678  0.52421656  0.28407600    -0.01800
Br2383     Br  0.75955837  0.57301922  0.27212135     0.00700
Br2384     Br  0.83396654  0.61182194  0.29808156    -0.01700
C2385       C  0.62834639  0.51560210  0.28949436    -0.02800
C2386       C  0.66364591  0.52079435  0.27034719     0.06800
C2387       C  0.66041379  0.54583227  0.25372007    -0.03000
C2388       C  0.62825772  0.56654977  0.25951580    -0.03000
C2389       C  0.59905126  0.56275603  0.28194020     0.07000
C2390       C  0.59885017  0.53726516  0.29659809    -0.03200
Br2391     Br  0.55847277  0.53262922  0.32764904    -0.01700
Br2392     Br  0.61202868  0.97977373  0.30431265    -0.01800
Br2393     Br  0.62447999  0.60061267  0.23725580    -0.01700
Br2394     Br  0.69793281  0.55186674  0.22161669    -0.01700
C2395       C  0.47317518  0.67268936  0.41941578    -0.02800
C2396       C  0.49182657  0.68302443  0.39443447     0.06800
C2397       C  0.01186677  0.70954281  0.39459015    -0.03000
C2398       C  0.01135135  0.72610278  0.41934759    -0.03000
C2399       C  0.99699021  0.71461771  0.44547226     0.07000
C2400       C  0.47974056  0.68687179  0.44510215    -0.03200
Br2401     Br  0.46849202  0.66560161  0.47856571    -0.01700
Br2402     Br  0.43810055  0.63891831  0.41878325    -0.01800
Br2403     Br  0.02273121  0.76579402  0.41559013    -0.01700
Br2404     Br  0.03794327  0.72375945  0.36048223    -0.01700
C2405       C  0.88733822  0.52111148  0.46325065    -0.02800
C2406       C  0.92218881  0.52908071  0.48151497     0.06800
C2407       C  0.92027844  0.55622461  0.49394673    -0.03000
C2408       C  0.88916710  0.57627592  0.48499739    -0.03000
C2409       C  0.85764831  0.56921493  0.46458322     0.07000
C2410       C  0.85501608  0.54109014  0.45531101    -0.03200
Br2411     Br  0.80412368  0.52948828  0.43412161    -0.01700
Br2412     Br  0.87976559  0.98325685  0.95009399    -0.01800
Br2413     Br  0.89021531  0.61347068  0.50100370    -0.01700
Br2414     Br  0.95605466  0.56481414  0.52647886    -0.01700
C2415       C  0.64089806  0.54317924  0.44686862    -0.02800
C2416       C  0.65750822  0.56232641  0.46657979     0.06800
C2417       C  0.64326873  0.56047128  0.49466254    -0.03000
C2418       C  0.60650179  0.54393210  0.50142119    -0.03000
C2419       C  0.58616578  0.52640168  0.48082157     0.07000
C2420       C  0.60537386  0.52565161  0.45338645    -0.03200
Br2421     Br  0.58392835  0.00315983  0.42255695    -0.01700
Br2422     Br  0.67069686  0.53910491  0.41157883    -0.01800
Br2423     Br  0.57856137  0.55174366  0.53685140    -0.01700
Br2424     Br  0.67381839  0.58063436  0.52398673    -0.01700
C2425       C  0.98714279  0.52848981  0.42372282    -0.02800
C2426       C  0.00237222  0.53963189  0.44985765     0.06800
C2427       C  0.51819850  0.56776668  0.44974859    -0.03000
C2428       C  0.52266231  0.58279028  0.42423806    -0.03000
C2429       C  0.00464220  0.57220552  0.39910606     0.07000
C2430       C  0.98545851  0.54540901  0.39917244    -0.03200
Br2431     Br  0.95818607  0.53148912  0.36522511    -0.01700
Br2432     Br  0.97599842  0.48882151  0.41939772    -0.01800
Br2433     Br  0.55378968  0.61816301  0.42385578    -0.01700
Br2434     Br  0.53087315  0.58802143  0.48361123    -0.01700
C2435       C  0.88999356  0.92465829  0.01031742    -0.02800
C2436       C  0.85742406  0.93233848  0.02972613     0.06800
C2437       C  0.85195654  0.96091402  0.03629200    -0.03000
C2438       C  0.88477530  0.98057487  0.02963019    -0.03000
C2439       C  0.92191245  0.97193437  0.01362932     0.07000
C2440       C  0.92125395  0.94450328  0.00171441    -0.03200
Br2441     Br  0.95873131  0.93527799  0.97027506    -0.01700
Br2442     Br  0.88991770  0.88774049  0.99369919    -0.01800
Br2443     Br  0.87476834  0.51849430  0.04214297    -0.01700
Br2444     Br  0.79526363  0.97338233  0.04904968    -0.01700
C2445       C  0.60717861  0.95840407  0.99746327    -0.02800
C2446       C  0.58588786  0.97537619  0.01807741     0.06800
C2447       C  0.60413364  0.97576416  0.04591567    -0.03000
C2448       C  0.64012609  0.95836688  0.05276344    -0.03000
C2449       C  0.65913846  0.94081203  0.03229569     0.07000
C2450       C  0.64549181  0.94322173  0.00405028    -0.03200
Br2451     Br  0.67807426  0.92501151  0.47420758    -0.01700
Br2452     Br  0.57857080  0.94884602  0.46252847    -0.01800
Br2453     Br  0.66523922  0.95930722  0.09031036    -0.01700
Br2454     Br  0.58001318  0.99710503  0.07672626    -0.01700
C2455       C  0.52793464  0.92014828  0.07439997    -0.02800
C2456       C  0.00833942  0.93034509  0.09918715     0.06800
C2457       C  0.98485905  0.95588056  0.09797343    -0.03000
C2458       C  0.98461564  0.97231354  0.07307291    -0.03000
C2459       C  0.00164471  0.96143276  0.04737562     0.07000
C2460       C  0.52072593  0.93403936  0.04842021    -0.03200
Br2461     Br  0.53229889  0.91274383  0.01523484    -0.01700
Br2462     Br  0.56340081  0.88625291  0.07561743    -0.01800
Br2463     Br  0.96864837  0.01139898  0.07651406    -0.01700
Br2464     Br  0.95411139  0.96899482  0.13071060    -0.01700
C2465       C  0.00260843  0.98003943  0.52096015     0.01300
C2466       C  0.54344449  0.99019125  0.51005237     0.01300
C2467       C  0.54372291  0.51137310  0.98817965     0.01300
C2468       C  0.50309865  0.52101302  0.97615860     0.01300
C2469       C  0.96239080  0.51124519  0.98745782     0.01300
C2470       C  0.96213520  0.98967409  0.50864794     0.01300
O2471       O  0.94759226  0.59794520  0.77667397    -0.82800
C2472       C  0.49432391  0.66430550  0.86958768     0.96600
O2473       O  0.96081847  0.65979976  0.85482660    -0.71900
O2474       O  0.91726984  0.64713239  0.80841354    -0.75500
Al2475     Al  0.94843130  0.62523976  0.83617558     1.49000
C2476       C  0.92781350  0.65975551  0.78594510     0.91800
O2477       O  0.54928799  0.64494128  0.77359352    -0.81700
O2478       O  0.57994167  0.60095752  0.81125497    -0.75300
Al2479     Al  0.99833146  0.62183411  0.77920988     1.90100
O2480       O  0.56833502  0.65813752  0.81628055    -0.74300
O2481       O  0.53689370  0.59371262  0.85887668    -0.74200
O2482       O  0.52926722  0.65086045  0.86516607    -0.79900
O2483       O  0.96840971  0.60350180  0.86787860    -0.78100
O2484       O  0.49861395  0.62438409  0.81719155    -1.14200
O2485       O  0.92958979  0.59088139  0.82091228    -0.73400
C2486       C  0.92578182  0.58500862  0.79519104     0.97300
C2487       C  0.57276100  0.65965275  0.78988175     0.93700
Al2488     Al  0.54907678  0.62586178  0.83610501     1.55600
O2489       O  0.96389434  0.65485915  0.77421104    -0.78000
C2490       C  0.00315458  0.59028759  0.87360899     0.97900
C2491       C  0.56903186  0.58542449  0.79083896     0.92800
O2492       O  0.53260509  0.58846426  0.77883990    -0.83300
C2493       C  0.99787047  0.73279654  0.97189682     0.01300
C2494       C  0.95807320  0.74267574  0.98442676     0.01300
C2495       C  0.95993815  0.76370288  0.50644082     0.01300
C2496       C  0.00139611  0.77377091  0.51656533     0.01300
C2497       C  0.54105829  0.76386410  0.50363665     0.01300
C2498       C  0.53920666  0.74221467  0.98257704     0.01300
O2499       O  0.54813122  0.85101690  0.72419171    -0.82800
C2500       C  0.00634148  0.91178575  0.62446144     0.96600
O2501       O  0.54054500  0.90495302  0.63786470    -0.71900
O2502       O  0.57900586  0.89764757  0.68748654    -0.75500
Al2503     Al  0.55116080  0.87275371  0.66154842     1.49000
C2504       C  0.56609174  0.91261223  0.70791903     0.91800
O2505       O  0.94621440  0.89768205  0.72101365    -0.81700
O2506       O  0.91878724  0.85053339  0.68312270    -0.75300
Al2507     Al  0.99718321  0.87442485  0.71709954     1.90100
O2508       O  0.92797729  0.90889918  0.67790513    -0.74300
O2509       O  0.96331892  0.84432304  0.63490945    -0.74200
O2510       O  0.97014917  0.90119040  0.63074639    -0.79900
O2511       O  0.53421071  0.84848046  0.63161010    -0.78100
O2512       O  0.99926971  0.87433261  0.67885753    -1.14200
O2513       O  0.56969965  0.83971401  0.68182656    -0.73400
C2514       C  0.57097357  0.83569739  0.70819821     0.97300
C2515       C  0.92449438  0.91271931  0.70409257     0.93700
Al2516     Al  0.94957155  0.87603771  0.65875090     1.55600
O2517       O  0.53012075  0.90795872  0.71980101    -0.78000
C2518       C  0.49887881  0.83844515  0.62267163     0.97900
C2519       C  0.92870352  0.83630729  0.70494699     0.92800
O2520       O  0.96339960  0.84104908  0.71852179    -0.83300
C2521       C  0.74449934  0.50881950  0.78229591     0.01300
C2522       C  0.70455387  0.50219256  0.76721054     0.01300
C2523       C  0.70685620  0.98423950  0.74290000     0.01300
C2524       C  0.74772195  0.97738114  0.73001957     0.01300
C2525       C  0.78723966  0.98801642  0.74256874     0.01300
C2526       C  0.78563214  0.50565727  0.76752941     0.01300
O2527       O  0.69915398  0.85666507  0.52296054    -0.82800
C2528       C  0.74633058  0.91207241  0.62349598     0.96600
O2529       O  0.71180945  0.90453795  0.61105809    -0.71900
O2530       O  0.67301204  0.90098060  0.56116231    -0.75500
Al2531     Al  0.70007769  0.87374255  0.58601745     1.49000
C2532       C  0.68688968  0.91675191  0.54143437     0.91800
O2533       O  0.80533125  0.89595049  0.52521711    -0.81700
O2534       O  0.82982864  0.84994493  0.56205420    -0.75300
Al2535     Al  0.75210881  0.87619415  0.53022453     1.90100
O2536       O  0.82276903  0.90858807  0.56788095    -0.74300
O2537       O  0.78866733  0.84416986  0.61056282    -0.74200
O2538       O  0.78268730  0.90180527  0.61622483    -0.79900
O2539       O  0.71753381  0.84687704  0.61407739    -0.78100
O2540       O  0.75125955  0.87537661  0.56829029    -1.14200
O2541       O  0.68021761  0.84205010  0.56464500    -0.73400
C2542       C  0.67708166  0.84056705  0.53818106     0.97300
C2543       C  0.82702649  0.91120095  0.54157565     0.93700
Al2544     Al  0.80160640  0.87608230  0.58736826     1.55600
O2545       O  0.72265108  0.91152593  0.52918341    -0.78000
C2546       C  0.75345684  0.83614091  0.62158263     0.97900
C2547       C  0.81671093  0.83511552  0.54134242     0.92800
O2548       O  0.78149890  0.84094429  0.52862615    -0.83300
C2549       C  0.75017974  0.73249344  0.77263515     0.01300
C2550       C  0.79090232  0.74146362  0.76027820     0.01300
C2551       C  0.78896156  0.76071826  0.73706979     0.01300
C2552       C  0.74799716  0.76680525  0.72350331     0.01300
C2553       C  0.70861315  0.75362506  0.73306471     0.01300
C2554       C  0.71251074  0.73174763  0.75434474     0.01300
O2555       O  0.80378279  0.60519780  0.97037836    -0.82800
C2556       C  0.75050921  0.66401140  0.87332282     0.96600
O2557       O  0.78454324  0.66023190  0.88780127    -0.71900
O2558       O  0.82929954  0.65338860  0.93444107    -0.75500
Al2559     Al  0.80117224  0.62766505  0.90865035     1.49000
C2560       C  0.81601216  0.66799595  0.95517295     0.91800
O2561       O  0.69832449  0.64868178  0.96944171    -0.81700
O2562       O  0.67184652  0.60068235  0.93567455    -0.75300
Al2563     Al  0.75103648  0.62686026  0.96560999     1.90100
O2564       O  0.67887288  0.65806756  0.92582185    -0.74300
O2565       O  0.71668623  0.59182546  0.88969775    -0.74200
O2566       O  0.71789633  0.64841312  0.87750818    -0.79900
O2567       O  0.78347572  0.60243218  0.87827133    -0.78100
O2568       O  0.75105549  0.62645269  0.92768403    -1.14200
O2569       O  0.82426450  0.59515679  0.92721231    -0.73400
C2570       C  0.82681718  0.59091827  0.95348068     0.97300
C2571       C  0.67581279  0.66271268  0.95189821     0.93700
Al2572     Al  0.70072857  0.62489546  0.90886359     1.55600
O2573       O  0.78113902  0.66175669  0.96762812    -0.78000
C2574       C  0.75007694  0.58734592  0.87484624     0.97900
C2575       C  0.68506240  0.58614624  0.95651785     0.92800
O2576       O  0.72071798  0.59193657  0.96845191    -0.83300
C2577       C  0.78772870  0.69684530  0.83850147    -0.02800
C2578       C  0.74895151  0.68664661  0.85111503     0.06800
C2579       C  0.70907110  0.69998927  0.84301755    -0.03000
C2580       C  0.70824221  0.71891392  0.81965000    -0.03000
C2581       C  0.74739770  0.72360035  0.80399109     0.07000
C2582       C  0.78542824  0.71974760  0.81993102    -0.03200
Br2583     Br  0.80270583  0.75362998  0.83868395    -0.01700
Br2584     Br  0.84520651  0.68260271  0.84678914    -0.01800
Br2585     Br  0.65471778  0.73928293  0.81209018    -0.01700
Br2586     Br  0.65556203  0.69309500  0.86341865    -0.01700
C2587       C  0.74506286  0.77153342  0.67003791    -0.02800
C2588       C  0.74752821  0.78453518  0.69695377     0.06800
C2589       C  0.75414236  0.81399404  0.69777361    -0.03000
C2590       C  0.76327054  0.82901152  0.67297924    -0.03000
C2591       C  0.75464741  0.81707768  0.64653890     0.07000
C2592       C  0.74410493  0.78824266  0.64525269    -0.03200
Br2593     Br  0.72849316  0.77141491  0.61004946    -0.01700
Br2594     Br  0.74484356  0.73093630  0.66641632    -0.01800
Br2595     Br  0.79030621  0.86539840  0.67527149    -0.01700
Br2596     Br  0.74430973  0.83557958  0.73099998    -0.01700
C2597       C  0.72153336  0.92094314  0.67298409    -0.02800
C2598       C  0.74385067  0.93066378  0.64907037     0.06800
C2599       C  0.76775586  0.95587448  0.65164389    -0.03000
C2600       C  0.76607862  0.97192798  0.67696378    -0.03000
C2601       C  0.74902258  0.96015991  0.70226755     0.07000
C2602       C  0.73012238  0.93291639  0.69962821    -0.03200
Br2603     Br  0.72547161  0.90753050  0.73050070    -0.01700
Br2604     Br  0.68153414  0.88961013  0.67016807    -0.01800
Br2605     Br  0.78188502  0.51092626  0.67524651    -0.01700
Br2606     Br  0.80182832  0.96901814  0.62049310    -0.01700
C2607       C  0.78573667  0.54655446  0.84835062    -0.02800
C2608       C  0.74875632  0.56399356  0.85357904     0.06800
C2609       C  0.70854697  0.55554035  0.84129900    -0.03000
C2610       C  0.70647795  0.53030237  0.82603316    -0.03000
C2611       C  0.74423498  0.52111856  0.81246620     0.07000
C2612       C  0.78176364  0.52342264  0.82965400    -0.03200
Br2613     Br  0.81239102  0.48937930  0.83894676    -0.01700
Br2614     Br  0.84083707  0.55258827  0.86684745    -0.01800
Br2615     Br  0.68375654  0.50109639  0.84971686    -0.01700
Br2616     Br  0.65401762  0.57433534  0.84808319    -0.01700
C2617       C  0.65992318  0.79418981  0.74880615    -0.02800
C2618       C  0.66646838  0.77103203  0.73008679     0.06800
C2619       C  0.63502830  0.76825471  0.70786641    -0.03000
C2620       C  0.59840853  0.78622891  0.70662692    -0.03000
C2621       C  0.59921117  0.81241543  0.71991097     0.07000
C2622       C  0.62959418  0.81599215  0.74203670    -0.03200
Br2623     Br  0.63230585  0.85097624  0.76203233    -0.01700
Br2624     Br  0.69451217  0.79788582  0.78271040    -0.01800
Br2625     Br  0.54440220  0.77366125  0.69013608    -0.01700
Br2626     Br  0.64291889  0.74733142  0.67394533    -0.01700
C2627       C  0.88565180  0.79238120  0.69678525    -0.02800
C2628       C  0.89802181  0.81443262  0.71485755     0.06800
C2629       C  0.87840824  0.81658305  0.74164016    -0.03000
C2630       C  0.84042211  0.80104187  0.74755358    -0.03000
C2631       C  0.82850443  0.77809104  0.72994536     0.07000
C2632       C  0.85381043  0.77292215  0.70545078    -0.03200
Br2633     Br  0.84933726  0.73845198  0.68478693    -0.01700
Br2634     Br  0.91468603  0.78763715  0.66090581    -0.01800
Br2635     Br  0.80685405  0.81096854  0.78087448    -0.01700
Br2636     Br  0.90557450  0.83854915  0.77122798    -0.01700
C2637       C  0.85718499  0.92407479  0.73146847    -0.02800
C2638       C  0.89251968  0.93359577  0.71535950     0.06800
C2639       C  0.89821359  0.96296361  0.71220154    -0.03000
C2640       C  0.86434106  0.98199793  0.72003896    -0.03000
C2641       C  0.82779588  0.97166876  0.73530518     0.07000
C2642       C  0.82843267  0.94323745  0.74391462    -0.03200
Br2643     Br  0.79686994  0.93191219  0.77733004    -0.01700
Br2644     Br  0.84562813  0.88489915  0.73581948    -0.01800
Br2645     Br  0.87189803  0.02167614  0.71252958    -0.01700
Br2646     Br  0.95484444  0.97695606  0.70207280    -0.01700
C2647       C  0.61184682  0.93340622  0.74597309    -0.02800
C2648       C  0.59506939  0.93497545  0.71837228     0.06800
C2649       C  0.61166699  0.95506871  0.69942315    -0.03000
C2650       C  0.64605848  0.97274293  0.70770348    -0.03000
C2651       C  0.66658710  0.96876293  0.73435457     0.07000
C2652       C  0.65024158  0.94786628  0.75288356    -0.03200
Br2653     Br  0.68335110  0.93566322  0.78613463    -0.01700
Br2654     Br  0.58158797  0.91250425  0.77474572    -0.01800
Br2655     Br  0.66601530  0.50010162  0.68081321    -0.01700
Br2656     Br  0.58640035  0.95888908  0.66214069    -0.01700
C2657       C  0.61250056  0.67721203  0.98183217    -0.02800
C2658       C  0.64443425  0.68427684  0.96187047     0.06800
C2659       C  0.64603058  0.71196069  0.95119981    -0.03000
C2660       C  0.61336174  0.73182254  0.95837319    -0.03000
C2661       C  0.57849194  0.72392703  0.97646414     0.07000
C2662       C  0.58025231  0.69694187  0.98937253    -0.03200
Br2663     Br  0.54376137  0.68857262  0.02144748    -0.01700
Br2664     Br  0.61272111  0.64048950  0.99926295    -0.01800
Br2665     Br  0.62050057  0.76961936  0.94461665    -0.01700
Br2666     Br  0.69544701  0.72315542  0.92852838    -0.01700
C2667       C  0.85906826  0.69358818  0.99257406    -0.02800
C2668       C  0.84282066  0.69224167  0.96487478     0.06800
C2669       C  0.85712576  0.71210634  0.94515928    -0.03000
C2670       C  0.89369440  0.72914194  0.95081735    -0.03000
C2671       C  0.91500487  0.72790373  0.97776499     0.07000
C2672       C  0.89604354  0.71015704  0.99866461    -0.03200
Br2673     Br  0.92623983  0.70187085  0.03335268    -0.01700
Br2674     Br  0.83078589  0.67275620  0.02232660    -0.01800
Br2675     Br  0.91401577  0.75091281  0.91930842    -0.01700
Br2676     Br  0.82248928  0.71795534  0.91156251    -0.01700
C2677       C  0.58231986  0.80898534  0.49734072    -0.02800
C2678       C  0.58206789  0.78107513  0.50819533     0.06800
C2679       C  0.62025206  0.77168150  0.52296687    -0.03000
C2680       C  0.65344819  0.79106275  0.52967842    -0.03000
C2681       C  0.64722733  0.81991951  0.52494126     0.07000
C2682       C  0.61365026  0.82853008  0.50658028    -0.03200
Br2683     Br  0.61201313  0.86654989  0.99268761    -0.01700
Br2684     Br  0.54400297  0.81945936  0.96657474    -0.01800
Br2685     Br  0.71109562  0.77821191  0.54011021    -0.01700
Br2686     Br  0.63130142  0.73336546  0.53410515    -0.01700
C2687       C  0.89559322  0.79533453  0.99541582    -0.02800
C2688       C  0.91814892  0.77827476  0.51545210     0.06800
C2689       C  0.90153575  0.77720629  0.54356725    -0.03000
C2690       C  0.86520811  0.79381944  0.55120135    -0.03000
C2691       C  0.84495104  0.81170958  0.53139325     0.07000
C2692       C  0.85754673  0.81023243  0.50289030    -0.03200
Br2693     Br  0.82410770  0.82938216  0.97385006    -0.01700
Br2694     Br  0.92201708  0.80496155  0.95982592    -0.01800
Br2695     Br  0.84148742  0.79113122  0.58889979    -0.01700
Br2696     Br  0.92872330  0.75610294  0.57367527    -0.01700
C2697       C  0.48459223  0.81939579  0.54501276    -0.02800
C2698       C  0.50406966  0.79219595  0.54304442     0.06800
C2699       C  0.02396489  0.78137788  0.56792545    -0.03000
C2700       C  0.02562488  0.79751808  0.59288859    -0.03000
C2701       C  0.49946202  0.82183866  0.59584551     0.07000
C2702       C  0.47854667  0.83261714  0.57150391    -0.03200
Br2703     Br  0.44408831  0.86686290  0.57365710    -0.01700
Br2704     Br  0.47069096  0.84102610  0.51225704    -0.01800
Br2705     Br  0.06526627  0.78625974  0.62220673    -0.01700
Br2706     Br  0.04062224  0.74239701  0.57078909    -0.01700
C2707       C  0.65265502  0.66770185  0.78463042    -0.02800
C2708       C  0.60943970  0.67606570  0.77817742     0.06800
C2709       C  0.60297075  0.69672715  0.75712569    -0.03000
C2710       C  0.63938275  0.70747511  0.74274446    -0.03000
C2711       C  0.67999811  0.70721767  0.75667562     0.07000
C2712       C  0.68806964  0.68210505  0.77257816    -0.03200
Br2713     Br  0.74468979  0.66441693  0.77610545    -0.01700
Br2714     Br  0.66448894  0.63665730  0.80984597    -0.01800
Br2715     Br  0.64307672  0.68861735  0.70704757    -0.01700
Br2716     Br  0.54550921  0.70597173  0.74350695    -0.01700
C2717       C  0.86911564  0.72952550  0.78045385    -0.02800
C2718       C  0.83167170  0.72279097  0.76354704     0.06800
C2719       C  0.83326669  0.69663433  0.74869187    -0.03000
C2720       C  0.86638922  0.67644619  0.75444356    -0.03000
C2721       C  0.89838910  0.68201990  0.77492273     0.07000
C2722       C  0.90129989  0.70898037  0.78638512    -0.03200
Br2723     Br  0.95120917  0.71740943  0.81008244    -0.01700
Br2724     Br  0.88229809  0.76591133  0.79511945    -0.01800
Br2725     Br  0.86950788  0.64159075  0.73351492    -0.01700
Br2726     Br  0.79171834  0.68833865  0.71910244    -0.01700
C2727       C  0.90159942  0.53607114  0.78368619    -0.02800
C2728       C  0.89192960  0.56472743  0.78696476     0.06800
C2729       C  0.84858637  0.57385308  0.78596723    -0.03000
C2730       C  0.81549347  0.55527877  0.77764411    -0.03000
C2731       C  0.82363399  0.52549406  0.77499289     0.07000
C2732       C  0.86763005  0.51621763  0.78064438    -0.03200
Br2733     Br  0.88440760  0.97781890  0.78874676    -0.01700
Br2734     Br  0.96195682  0.52421638  0.78407722    -0.01800
Br2735     Br  0.75955736  0.57301818  0.77212464     0.00700
Br2736     Br  0.83396577  0.61182073  0.79808482    -0.01700
C2737       C  0.62834715  0.51560012  0.78949608    -0.02800
C2738       C  0.66364645  0.52079261  0.77034891     0.06800
C2739       C  0.66041397  0.54583033  0.75372155    -0.03000
C2740       C  0.62825709  0.56654742  0.75951675    -0.03000
C2741       C  0.59905009  0.56275346  0.78194082     0.07000
C2742       C  0.59884968  0.53726275  0.79659910    -0.03200
Br2743     Br  0.55847221  0.53262662  0.82764990    -0.01700
Br2744     Br  0.61202477  0.97977599  0.80430900    -0.01800
Br2745     Br  0.62447932  0.60061022  0.73725663    -0.01700
Br2746     Br  0.69793436  0.55186540  0.72161891    -0.01700
C2747       C  0.47317795  0.67268840  0.91941651    -0.02800
C2748       C  0.49182850  0.68302351  0.89443491     0.06800
C2749       C  0.01186736  0.70954200  0.89458970    -0.03000
C2750       C  0.01135180  0.72610242  0.91934682    -0.03000
C2751       C  0.99699097  0.71461773  0.94547176     0.07000
C2752       C  0.47974293  0.68687133  0.94510264    -0.03200
Br2753     Br  0.46849516  0.66560149  0.97856659    -0.01700
Br2754     Br  0.43810411  0.63891698  0.91878473    -0.01800
Br2755     Br  0.02273172  0.76579359  0.91558868    -0.01700
Br2756     Br  0.03794247  0.72375831  0.86048120    -0.01700
C2757       C  0.88733828  0.52111073  0.96325198    -0.02800
C2758       C  0.92218939  0.52907966  0.98151596     0.06800
C2759       C  0.92027903  0.55622334  0.99394833    -0.03000
C2760       C  0.88916751  0.57627487  0.98499953    -0.03000
C2761       C  0.85764828  0.56921417  0.96458559     0.07000
C2762       C  0.85501540  0.54108936  0.95531348    -0.03200
Br2763     Br  0.80412072  0.52948739  0.93412653    -0.01700
Br2764     Br  0.87976651  0.98325679  0.45009357    -0.01800
Br2765     Br  0.89021564  0.61346940  0.00100661    -0.01700
Br2766     Br  0.95605546  0.56481234  0.02648040    -0.01700
C2767       C  0.64089831  0.54317890  0.94686897    -0.02800
C2768       C  0.65750774  0.56232618  0.96658031     0.06800
C2769       C  0.64326712  0.56047115  0.99466288    -0.03000
C2770       C  0.60650059  0.54393136  0.00142110    -0.03000
C2771       C  0.58616589  0.52640057  0.98082130     0.07000
C2772       C  0.60537452  0.52565078  0.95338642    -0.03200
Br2773     Br  0.58392612  0.00316181  0.92255637    -0.01700
Br2774     Br  0.67069696  0.53910537  0.91157915    -0.01800
Br2775     Br  0.57855887  0.55174215  0.03685107    -0.01700
Br2776     Br  0.67381419  0.58063549  0.02398729    -0.01700
C2777       C  0.98714345  0.52848847  0.92372280    -0.02800
C2778       C  0.00237251  0.53963049  0.94985775     0.06800
C2779       C  0.51819795  0.56776553  0.94974889    -0.03000
C2780       C  0.52266205  0.58278932  0.92423853    -0.03000
C2781       C  0.00464203  0.57220452  0.89910648     0.07000
C2782       C  0.98545848  0.54540797  0.89917267    -0.03200
Br2783     Br  0.95818445  0.53148876  0.86522561    -0.01700
Br2784     Br  0.97599993  0.48882013  0.91939718    -0.01800
Br2785     Br  0.55378931  0.61816209  0.92385677    -0.01700
Br2786     Br  0.53087085  0.58802026  0.98361176    -0.01700
C2787       C  0.88999508  0.92465598  0.51031657    -0.02800
C2788       C  0.85742593  0.93233570  0.52972571     0.06800
C2789       C  0.85195767  0.96091126  0.53629136    -0.03000
C2790       C  0.88477605  0.98057242  0.52962964    -0.03000
C2791       C  0.92191326  0.97193236  0.51362862     0.07000
C2792       C  0.92125505  0.94450131  0.50171351    -0.03200
Br2793     Br  0.95873238  0.93527657  0.47027402    -0.01700
Br2794     Br  0.88991863  0.88773865  0.49369727    -0.01800
Br2795     Br  0.87476613  0.51849748  0.54214141    -0.01700
Br2796     Br  0.79526378  0.97337915  0.54904748    -0.01700
C2797       C  0.60717882  0.95840147  0.49746170    -0.02800
C2798       C  0.58588879  0.97537385  0.51807600     0.06800
C2799       C  0.60413584  0.97576238  0.54591388    -0.03000
C2800       C  0.64012937  0.95836591  0.55276109    -0.03000
C2801       C  0.65914085  0.94081071  0.53229342     0.07000
C2802       C  0.64549258  0.94321943  0.50404825    -0.03200
Br2803     Br  0.67807457  0.92501458  0.97420964    -0.01700
Br2804     Br  0.57857195  0.94884922  0.96252944    -0.01800
Br2805     Br  0.66524508  0.95930759  0.59030725    -0.01700
Br2806     Br  0.58001551  0.99710247  0.57672496    -0.01700
C2807       C  0.52793489  0.92014717  0.57440027    -0.02800
C2808       C  0.00833949  0.93034380  0.59918655     0.06800
C2809       C  0.98485844  0.95587896  0.59797224    -0.03000
C2810       C  0.98461601  0.97231185  0.57307172    -0.03000
C2811       C  0.00164564  0.96143092  0.54737468     0.07000
C2812       C  0.52072649  0.93403784  0.54842026    -0.03200
Br2813     Br  0.53229879  0.91274166  0.51523516    -0.01700
Br2814     Br  0.56340127  0.88625194  0.57561829    -0.01800
Br2815     Br  0.96864980  0.01139743  0.57651284    -0.01700
Br2816     Br  0.95410769  0.96899288  0.63070834    -0.01700
loop_ 
_geom_bond_atom_site_label_1 
_geom_bond_atom_site_label_2 
_geom_bond_distance 
_geom_bond_site_symmetry_2 
_ccdc_geom_bond_type 
C1            C6   1.440       .  A
C1         C1410   1.440       .  A
C1          C347   1.529       .  S
C2         C1409   1.440       .  A
C2         C1059   1.445   1_554  A
C2          C334   1.522       .  S
C3            C4   1.439       .  A
C3         C1058   1.445   1_545  A
C3          C307   1.528       .  S
C4         C1413   1.438   1_455  A
C4         C1722   1.526       .  S
C5         C1412   1.438       .  A
C5         C1062   1.435   1_545  A
C5          C294   1.515       .  S
C6         C1061   1.435   1_554  A
C6          C327   1.515       .  S
O7           C22   1.264       .  A
O7          Al15   1.933       .  S
C8          C284   1.476       .  S
C8           O18   1.261   1_655  A
C8         O1417   1.260       .  A
O9         C1416   1.260       .  A
O9          Al11   1.902       .  S
O10          C12   1.263       .  A
O10         Al11   1.921       .  S
Al11         O19   1.916       .  S
Al11         O21   1.876       .  S
Al11       O1428   1.783       .  S
C12         C257   1.477       .  S
C12          O25   1.259       .  A
O13          C23   1.266       .  A
O13       Al1423   1.932   1_455  S
O14          C27   1.261       .  A
O14         Al24   1.915       .  S
Al15         O25   1.896       .  S
Al15       O1421   1.932       .  S
Al15       O1436   1.893       .  S
Al15       O1428   1.802       .  S
O16          C23   1.259       .  A
O16         Al24   1.893       .  S
O17        C1434   1.260       .  A
O17         Al24   1.906       .  S
O18         Al24   1.914       .  S
O19          C26   1.261       .  A
O20         Al24   1.786   1_655  S
O20       Al1419   1.783       .  S
O20       Al1423   1.802       .  S
O21          C22   1.254       .  A
C22         C264   1.471       .  S
C23         C244   1.480       .  S
C26         C317   1.480       .  S
C26        O1425   1.260       .  A
C27         C277   1.473       .  S
C27          O28   1.258       .  A
O28       Al1423   1.893   1_455  S
C29          C30   1.434       .  A
C29        C1442   1.436       .  A
C29         C287   1.520       .  S
C30         C383   1.444       .  A
C30         C207   1.531       .  S
C31          C32   1.441       .  A
C31         C382   1.444   1_554  A
C31         C224   1.514       .  S
C32        C1441   1.439       .  A
C32        C1642   1.531       .  S
C33        C1440   1.439       .  A
C33         C386   1.433   1_554  A
C33         C214   1.518       .  S
C34        C1437   1.436   1_455  A
C34         C385   1.433       .  A
C34         C197   1.508       .  S
O35          C50   1.260       .  A
O35       Al1451   1.938   1_455  S
C36         C344   1.485       .  S
C36          O46   1.257       .  A
C36        O1445   1.264       .  A
O37        C1444   1.264       .  A
O37         Al39   1.918       .  S
O38          C40   1.263       .  A
O38         Al39   1.907       .  S
Al39         O47   1.899       .  S
Al39         O49   1.918       .  S
Al39       O1456   1.793   1_455  S
C40         C184   1.473       .  S
C40          O53   1.260       .  A
O41          C51   1.258       .  A
O41         Al43   1.916       .  S
O42          C55   1.268       .  A
O42         Al52   1.923       .  S
Al43         O56   1.898       .  S
Al43       O1443   1.938       .  S
Al43       O1461   1.893       .  S
Al43         O48   1.811       .  S
O44          C51   1.258       .  A
O44         Al52   1.920       .  S
O45        C1462   1.265       .  A
O45         Al52   1.927       .  S
O46         Al52   1.894       .  S
O47          C54   1.258   1_455  A
O48         Al52   1.795       .  S
O48       Al1447   1.793       .  S
O49          C50   1.263       .  A
C50         C157   1.503       .  S
C51         C174   1.489       .  S
O53       Al1451   1.893   1_455  S
C54         C237   1.495       .  S
C54        O1453   1.265       .  A
C55         C164   1.481       .  S
C55          O56   1.262       .  A
C57          C58   1.451       .  A
C57          C62   1.450       .  A
C57         C147   1.542       .  S
C58         C763   1.431   1_545  A
C58         C274   1.535       .  S
C59          C60   1.431       .  A
C59         C762   1.431       .  A
C59         C187   1.495       .  S
C60          C61   1.441       .  A
C60         C137   1.548       .  S
C61         C766   1.448       .  A
C61         C177   1.502       .  S
C62         C765   1.448   1_545  A
C62         C267   1.542       .  S
O63          C78   1.252       .  A
O63         Al71   1.904       .  S
C64         C134   1.500       .  S
C64          O74   1.262       .  A
C64          O65   1.263       .  A
O65         Al67   1.917       .  S
O66          C68   1.272       .  A
O66         Al67   1.928       .  S
Al67         O75   1.911       .  S
Al67         O77   1.914       .  S
Al67         O76   1.783       .  S
C68         C337   1.482       .  S
C68          O81   1.265       .  A
O69          C79   1.252       .  A
O69         Al71   1.901       .  S
O70          C83   1.272       .  A
O70         Al80   1.928       .  S
Al71         O84   1.895       .  S
Al71         O81   1.898       .  S
Al71         O76   1.802       .  S
O72          C79   1.258       .  A
O72         Al80   1.913       .  S
O73          C82   1.261       .  A
O73         Al80   1.912       .  S
O74         Al80   1.921       .  S
O75          C82   1.260       .  A
O76         Al80   1.786       .  S
O77          C78   1.258       .  A
C78         C217   1.482       .  S
C79         C324   1.483       .  S
C82         C127   1.486       .  S
C83         C227   1.481       .  S
C83          O84   1.263       .  A
C85          C86   1.446       .  A
C85          C90   1.441       .  A
C85         C117   1.545       .  S
C86          C87   1.428       .  A
C86         C254   1.533       .  S
C87          C88   1.435       .  A
C87         C167   1.508       .  S
C88          C89   1.436       .  A
C88         C124   1.510       .  S
C89          C90   1.449       .  A
C89         C154   1.534       .  S
C90         C247   1.540       .  S
O91         C106   1.263       .  A
O91         Al99   1.922       .  S
C92         C114   1.501       .  S
C92         O102   1.263       .  A
C92          O93   1.258       .  A
O93         Al95   1.897       .  S
O94          C96   1.268       .  A
O94         Al95   1.931       .  S
Al95        O103   1.950       .  S
Al95        O105   1.904       .  S
Al95        O104   1.784       .  S
C96         C204   1.489       .  S
C96         O109   1.259       .  A
O97         C107   1.264       .  A
O97         Al99   1.921       .  S
O98         C111   1.267       .  A
O98        Al108   1.931       .  S
Al99        O112   1.909       .  S
Al99        O109   1.902       .  S
Al99        O104   1.795       .  S
O100        C107   1.257       .  A
O100       Al108   1.886       .  S
O101        C110   1.261       .  A
O101       Al108   1.874       .  S
O102       Al108   1.931       .  S
O103        C110   1.262       .  A
O104       Al108   1.780       .  S
O105        C106   1.261       .  A
C106        C297   1.486       .  S
C107        C194   1.478       .  S
C110        C144   1.498       .  S
C111        C304   1.493       .  S
C111        O112   1.260       .  A
C113        C114   1.419       .  A
C113        C118   1.397       .  A
C113       Br120   1.922       .  S
C114        C115   1.424       .  A
C115        C116   1.423       .  A
C115       Br122   1.935       .  S
C116        C117   1.431       .  A
C116       Br121   1.930       .  S
C117        C118   1.397       .  A
C118       Br119   1.913       .  S
C123        C124   1.418       .  A
C123        C128   1.415       .  A
C123       Br130   1.933       .  S
C124        C125   1.413       .  A
C125        C126   1.401       .  A
C125       Br132   1.901       .  S
C126        C127   1.399       .  A
C126       Br131   1.921       .  S
C127        C128   1.408       .  A
C128       Br129   1.909       .  S
C133        C134   1.403       .  A
C133        C138   1.408       .  A
C133       Br140   1.937       .  S
C134        C135   1.411       .  A
C135        C136   1.421       .  A
C135       Br142   1.915       .  S
C136        C137   1.423       .  A
C136       Br845   1.921       .  S
C137        C138   1.425       .  A
C138       Br139   1.898       .  S
Br141       C840   1.921   1_545  S
C143        C144   1.422       .  A
C143        C148   1.416       .  A
C143       Br150   1.923       .  S
C144        C145   1.420       .  A
C145        C146   1.400       .  A
C145       Br152   1.917       .  S
C146        C147   1.393       .  A
C146       Br151   1.916       .  S
C147        C148   1.411       .  A
C148       Br149   1.912   1_545  S
C153        C154   1.425       .  A
C153        C158   1.422       .  A
C153       Br160   1.929       .  S
C154        C155   1.431       .  A
C155        C156   1.406       .  A
C155       Br162   1.903       .  S
C156        C157   1.392       .  A
C156       Br161   1.926       .  S
C157        C158   1.410       .  A
C158       Br159   1.913       .  S
C163        C164   1.405       .  A
C163        C168   1.409       .  A
C163       Br170   1.932       .  S
C164        C165   1.408       .  A
C165        C166   1.410       .  A
C165       Br172   1.935       .  S
C166        C167   1.420       .  A
C166       Br171   1.942       .  S
C167        C168   1.417       .  A
C168       Br169   1.911       .  S
C173        C174   1.403       .  A
C173        C178   1.394       .  A
C173       Br180   1.904       .  S
C174        C175   1.412       .  A
C175        C176   1.422       .  A
C175       Br182   1.924       .  S
C176        C177   1.424       .  A
C176       Br181   1.929       .  S
C177        C178   1.408       .  A
C178       Br179   1.934       .  S
C183        C184   1.404       .  A
C183        C188   1.403       .  A
C183       Br190   1.926       .  S
C184        C185   1.406       .  A
C185        C186   1.406       .  A
C185       Br192   1.932       .  S
C186        C187   1.420       .  A
C186       Br895   1.921       .  S
C187        C188   1.417       .  A
C188       Br189   1.955       .  S
Br191       C890   1.921   1_545  S
C193        C194   1.404       .  A
C193        C198   1.404       .  A
C193       Br200   1.926       .  S
C194        C195   1.407       .  A
C195        C196   1.412       .  A
C195       Br202   1.935       .  S
C196        C197   1.423       .  A
C196       Br201   1.920       .  S
C197        C198   1.418       .  A
C198       Br199   1.931       .  S
C203        C204   1.402       .  A
C203        C208   1.412       .  A
C203       Br210   1.930       .  S
C204        C205   1.398       .  A
C205        C206   1.411       .  A
C205       Br212   1.928       .  S
C206        C207   1.432       .  A
C206       Br211   1.920       .  S
C207        C208   1.426       .  A
C208       Br209   1.921       .  S
C213        C214   1.419   1_556  A
C213        C218   1.408   1_556  A
C213       Br572   1.930       .  S
C214        C215   1.430       .  A
C215        C216   1.411       .  A
C215       Br222   1.919       .  S
C216        C217   1.398       .  A
C216       Br221   1.928       .  S
C217        C218   1.403       .  A
C218       Br571   1.918   1_554  S
Br219       C570   1.918       .  S
Br220       C565   1.930       .  S
C223        C576   1.421       .  A
C223        C580   1.406       .  A
C223       Br230   1.927       .  S
C224        C225   1.427       .  A
C224        C575   1.421   1_554  A
C225        C226   1.408       .  A
C225       Br232   1.925       .  S
C226        C227   1.404       .  A
C226       Br231   1.932       .  S
C227        C228   1.406       .  A
C228        C575   1.406   1_554  A
C228       Br581   1.934   1_554  S
Br229       C580   1.934       .  S
C233        C234   1.421   1_655  A
C233        C238   1.415       .  A
C233       Br240   1.904       .  S
C234       C1643   1.418       .  A
C234       C1440   1.531       .  S
C235        C236   1.409       .  A
C235       C1642   1.418       .  A
C235       Br242   1.919       .  S
C236       C1645   1.408       .  A
C236       Br241   1.915       .  S
C237        C238   1.410       .  A
C237       C1644   1.408   1_655  A
C238       Br239   1.934       .  S
C243        C244   1.412       .  A
C243        C248   1.407       .  A
C243       Br250   1.925       .  S
C244        C245   1.409       .  A
C245        C246   1.407       .  A
C245       Br252   1.921       .  S
C246        C247   1.407       .  A
C246       Br251   1.915       .  S
C247        C248   1.427       .  A
C248       Br249   1.929       .  S
C253        C254   1.435       .  A
C253        C258   1.409       .  A
C253       Br260   1.906       .  S
C254        C255   1.426       .  A
C255        C256   1.416       .  A
C255       Br262   1.932       .  S
C256        C257   1.403       .  A
C256       Br261   1.929       .  S
C257        C258   1.392       .  A
C258       Br259   1.938       .  S
C263        C264   1.398       .  A
C263        C268   1.415       .  A
C263       Br270   1.930       .  S
C264        C265   1.395       .  A
C265        C266   1.403       .  A
C265       Br272   1.940       .  S
C266        C267   1.438       .  A
C266       Br271   1.922       .  S
C267        C268   1.440       .  A
C268       Br973   1.928   1_545  S
Br269       C972   1.928       .  S
C273        C274   1.435       .  A
C273        C278   1.405       .  A
C273       Br984   1.911   1_545  S
C274        C275   1.426       .  A
C275        C276   1.415       .  A
C275       Br282   1.930       .  S
C276        C277   1.403       .  A
C276       Br281   1.930       .  S
C277        C278   1.393       .  A
C278       Br279   1.937       .  S
Br280       C977   1.911       .  S
C283        C284   1.404       .  A
C283        C288   1.404       .  A
C283       Br290   1.934       .  S
C284       C1693   1.403   1_655  A
C285        C286   1.411       .  A
C285       C1692   1.403       .  A
C285       Br292   1.926       .  S
C286        C287   1.423       .  A
C286       Br291   1.924       .  S
C287       C1696   1.421       .  A
C288       C1695   1.421       .  A
C288       Br289   1.910       .  S
C293        C294   1.425       .  A
C293        C298   1.416       .  A
C293      Br1356   1.918   1_545  S
C294        C295   1.417       .  A
C295        C296   1.406       .  A
C295       Br302   1.932       .  S
C296        C297   1.406       .  A
C296       Br301   1.920       .  S
C297        C298   1.407       .  A
C298       Br299   1.935       .  S
Br300      C1349   1.918       .  S
C303        C304   1.399       .  A
C303        C308   1.409       .  A
C303       Br310   1.915       .  S
C304        C305   1.403       .  A
C305        C306   1.414       .  A
C305       Br312   1.929       .  S
C306        C307   1.426       .  A
C306       Br311   1.920       .  S
C307        C308   1.428       .  A
C308      Br1013   1.921       .  S
Br309      C1012   1.921       .  S
C313        C314   1.424       .  A
C313        C318   1.412       .  A
C313       Br320   1.925   1_545  S
C314       C1723   1.422       .  A
C314       C1412   1.526       .  S
C315        C316   1.409       .  A
C315       C1722   1.422       .  A
C315       Br322   1.909       .  S
C316       C1725   1.404       .  A
C316       Br321   1.935       .  S
C317        C318   1.403       .  A
C317       C1724   1.404       .  A
C318       Br319   1.928       .  S
C323        C324   1.405       .  A
C323        C328   1.408       .  A
C323       Br330   1.919   1_554  S
C324        C325   1.399       .  A
C325        C326   1.412       .  A
C325       Br332   1.930       .  S
C326        C327   1.427       .  A
C326      Br1035   1.916       .  S
C327        C328   1.418       .  A
C328       Br329   1.931   1_554  S
Br331      C1030   1.916   1_545  S
C333        C334   1.423   1_556  A
C333        C338   1.407   1_556  A
C333       Br692   1.925       .  S
C334        C335   1.430       .  A
C335        C336   1.410       .  A
C335       Br342   1.922       .  S
C336        C337   1.404       .  A
C336       Br341   1.935       .  S
C337        C338   1.404       .  A
C338       Br691   1.933   1_554  S
Br339       C690   1.933       .  S
Br340       C685   1.924       .  S
C343        C348   1.410       .  A
C343       C1752   1.404       .  A
C343       Br350   1.935       .  S
C344        C345   1.405       .  A
C344       C1751   1.404       .  A
C345        C346   1.412       .  A
C345       Br352   1.918       .  S
C346        C347   1.421       .  A
C346       Br351   1.921       .  S
C347       C1756   1.422       .  A
C348       C1755   1.422       .  A
C348       Br349   1.901       .  S
C353       C1762   1.440       .  A
C353        C358   1.440       .  A
C353        C699   1.529       .  S
C354       C1761   1.440       .  A
C354        C707   1.445       .  A
C354        C686   1.522       .  S
C355        C706   1.445   1_546  A
C355        C356   1.439       .  A
C355        C659   1.528       .  S
C356       C1765   1.438   1_455  A
C356       C2074   1.526       .  S
C357       C1764   1.438       .  A
C357        C710   1.435   1_546  A
C357        C646   1.515       .  S
C358        C709   1.435       .  A
C358        C679   1.515       .  S
O359        C374   1.264       .  A
O359       Al367   1.933       .  S
C360        C636   1.476       .  S
C360        O370   1.261   1_655  A
C360       O1769   1.260       .  A
O361       C1768   1.260       .  A
O361       Al363   1.902       .  S
O362        C364   1.263       .  A
O362       Al363   1.921       .  S
Al363       O371   1.916       .  S
Al363       O373   1.876       .  S
Al363      O1780   1.783       .  S
C364        C609   1.477       .  S
C364        O377   1.259       .  A
O365        C375   1.266       .  A
O365      Al1775   1.932   1_455  S
O366        C379   1.261       .  A
O366       Al376   1.915       .  S
Al367      O1773   1.932       .  S
Al367      O1788   1.893       .  S
Al367       O377   1.896       .  S
Al367      O1780   1.802       .  S
O368        C375   1.259       .  A
O368       Al376   1.893       .  S
O369       C1786   1.260       .  A
O369       Al376   1.906       .  S
O370       Al376   1.914       .  S
O371        C378   1.261       .  A
O372      Al1771   1.783       .  S
O372      Al1775   1.802       .  S
O372       Al376   1.786   1_655  S
O373        C374   1.254       .  A
C374        C616   1.471       .  S
C375        C596   1.480       .  S
C378        C669   1.480       .  S
C378       O1777   1.260       .  A
C379        C629   1.473       .  S
C379        O380   1.258       .  A
O380      Al1775   1.893   1_455  S
C381        C382   1.434       .  A
C381       C1794   1.436       .  A
C381        C639   1.520       .  S
C382        C559   1.531       .  S
C383        C384   1.441       .  A
C383        C576   1.514       .  S
C384       C1793   1.439       .  A
C384       C1994   1.531       .  S
C385       C1792   1.439       .  A
C385        C566   1.518       .  S
C386       C1789   1.436   1_455  A
C386        C549   1.508       .  S
O387        C402   1.260       .  A
O387      Al1803   1.938   1_455  S
C388        C696   1.485       .  S
C388        O398   1.257       .  A
C388       O1797   1.264       .  A
O389       C1796   1.264       .  A
O389       Al391   1.918       .  S
O390        C392   1.263       .  A
O390       Al391   1.907       .  S
Al391       O399   1.899       .  S
Al391       O401   1.918       .  S
Al391      O1808   1.793   1_455  S
C392        C536   1.473       .  S
C392        O405   1.260       .  A
O393        C403   1.258       .  A
O393       Al395   1.916       .  S
O394        C407   1.268       .  A
O394       Al404   1.923       .  S
Al395      O1795   1.938       .  S
Al395       O408   1.898       .  S
Al395      O1813   1.893       .  S
Al395       O400   1.811       .  S
O396        C403   1.258       .  A
O396       Al404   1.920       .  S
O397       C1814   1.265       .  A
O397       Al404   1.927       .  S
O398       Al404   1.894       .  S
O399        C406   1.258   1_455  A
O400      Al1799   1.793       .  S
O400       Al404   1.795       .  S
O401        C402   1.263       .  A
C402        C509   1.503       .  S
C403        C526   1.489       .  S
O405      Al1803   1.893   1_455  S
C406        C589   1.495       .  S
C406       O1805   1.265       .  A
C407        C516   1.481       .  S
C407        O408   1.262       .  A
C409        C410   1.451       .  A
C409        C414   1.450       .  A
C409        C499   1.542       .  S
C410       C1115   1.431   1_545  A
C410        C626   1.535       .  S
C411       C1114   1.431       .  A
C411        C412   1.431       .  A
C411        C539   1.495       .  S
C412        C413   1.441       .  A
C412        C489   1.548       .  S
C413       C1118   1.448       .  A
C413        C529   1.502       .  S
C414       C1117   1.448   1_545  A
C414        C619   1.542       .  S
O415        C430   1.252       .  A
O415       Al423   1.904       .  S
C416        C486   1.500       .  S
C416        O426   1.262       .  A
C416        O417   1.263       .  A
O417       Al419   1.917       .  S
O418        C420   1.272       .  A
O418       Al419   1.928       .  S
Al419       O427   1.911       .  S
Al419       O429   1.914       .  S
Al419       O428   1.783       .  S
C420        C689   1.482       .  S
C420        O433   1.265       .  A
O421        C431   1.252       .  A
O421       Al423   1.901       .  S
O422        C435   1.272       .  A
O422       Al432   1.928       .  S
Al423       O436   1.895       .  S
Al423       O433   1.898       .  S
Al423       O428   1.802       .  S
O424        C431   1.258       .  A
O424       Al432   1.913       .  S
O425        C434   1.261       .  A
O425       Al432   1.912       .  S
O426       Al432   1.921       .  S
O427        C434   1.260       .  A
O428       Al432   1.786       .  S
O429        C430   1.258       .  A
C430        C569   1.482       .  S
C431        C676   1.483       .  S
C434        C479   1.486       .  S
C435        C579   1.481       .  S
C435        O436   1.263       .  A
C437        C438   1.446       .  A
C437        C442   1.441       .  A
C437        C469   1.545       .  S
C438        C439   1.428       .  A
C438        C606   1.533       .  S
C439        C440   1.435       .  A
C439        C519   1.508       .  S
C440        C441   1.436       .  A
C440        C476   1.510       .  S
C441        C442   1.449       .  A
C441        C506   1.534       .  S
C442        C599   1.540       .  S
O443        C458   1.263       .  A
O443       Al451   1.922       .  S
C444        C466   1.501       .  S
C444        O454   1.263       .  A
C444        O445   1.258       .  A
O445       Al447   1.897       .  S
O446        C448   1.268       .  A
O446       Al447   1.931       .  S
Al447       O455   1.950       .  S
Al447       O457   1.904       .  S
Al447       O456   1.784       .  S
C448        C556   1.489       .  S
C448        O461   1.259       .  A
O449        C459   1.264       .  A
O449       Al451   1.921       .  S
O450        C463   1.267       .  A
O450       Al460   1.931       .  S
Al451       O464   1.909       .  S
Al451       O461   1.902       .  S
Al451       O456   1.795       .  S
O452        C459   1.257       .  A
O452       Al460   1.886       .  S
O453        C462   1.261       .  A
O453       Al460   1.874       .  S
O454       Al460   1.931       .  S
O455        C462   1.262       .  A
O456       Al460   1.780       .  S
O457        C458   1.261       .  A
C458        C649   1.486       .  S
C459        C546   1.478       .  S
C462        C496   1.498       .  S
C463        C656   1.493       .  S
C463        O464   1.260       .  A
C465        C466   1.419       .  A
C465        C470   1.397       .  A
C465       Br472   1.922       .  S
C466        C467   1.424       .  A
C467        C468   1.423       .  A
C467       Br474   1.935       .  S
C468        C469   1.431       .  A
C468       Br473   1.930       .  S
C469        C470   1.397       .  A
C470       Br471   1.913       .  S
C475        C476   1.418       .  A
C475        C480   1.415       .  A
C475       Br482   1.933       .  S
C476        C477   1.413       .  A
C477        C478   1.401       .  A
C477       Br484   1.901       .  S
C478        C479   1.399       .  A
C478       Br483   1.921       .  S
C479        C480   1.408       .  A
C480       Br481   1.909       .  S
C485        C486   1.403       .  A
C485        C490   1.408       .  A
C485       Br492   1.937       .  S
C486        C487   1.411       .  A
C487        C488   1.421       .  A
C487       Br494   1.915       .  S
C488        C489   1.423       .  A
C488      Br1197   1.921       .  S
C489        C490   1.425       .  A
C490       Br491   1.898       .  S
Br493      C1192   1.921   1_545  S
C495        C496   1.422       .  A
C495        C500   1.416       .  A
C495       Br502   1.923       .  S
C496        C497   1.420       .  A
C497        C498   1.400       .  A
C497       Br504   1.917       .  S
C498        C499   1.393       .  A
C498       Br503   1.916       .  S
C499        C500   1.411       .  A
C500       Br501   1.912   1_545  S
C505        C506   1.425       .  A
C505        C510   1.422       .  A
C505       Br512   1.929       .  S
C506        C507   1.431       .  A
C507        C508   1.406       .  A
C507       Br514   1.903       .  S
C508        C509   1.392       .  A
C508       Br513   1.926       .  S
C509        C510   1.410       .  A
C510       Br511   1.913       .  S
C515        C516   1.405       .  A
C515        C520   1.409       .  A
C515       Br522   1.932       .  S
C516        C517   1.408       .  A
C517        C518   1.410       .  A
C517       Br524   1.935       .  S
C518        C519   1.420       .  A
C518       Br523   1.942       .  S
C519        C520   1.417       .  A
C520       Br521   1.911       .  S
C525        C526   1.403       .  A
C525        C530   1.394       .  A
C525       Br532   1.904       .  S
C526        C527   1.412       .  A
C527        C528   1.422       .  A
C527       Br534   1.924       .  S
C528        C529   1.424       .  A
C528       Br533   1.929       .  S
C529        C530   1.408       .  A
C530       Br531   1.934       .  S
C535        C536   1.404       .  A
C535        C540   1.403       .  A
C535       Br542   1.926       .  S
C536        C537   1.406       .  A
C537        C538   1.406       .  A
C537       Br544   1.932       .  S
C538        C539   1.420       .  A
C538      Br1247   1.921       .  S
C539        C540   1.417       .  A
C540       Br541   1.955       .  S
Br543      C1242   1.921   1_545  S
C545        C546   1.404       .  A
C545        C550   1.404       .  A
C545       Br552   1.926       .  S
C546        C547   1.407       .  A
C547        C548   1.412       .  A
C547       Br554   1.935       .  S
C548        C549   1.423       .  A
C548       Br553   1.920       .  S
C549        C550   1.418       .  A
C550       Br551   1.931   1_556  S
C555        C556   1.402       .  A
C555        C560   1.412       .  A
C555       Br562   1.930   1_556  S
C556        C557   1.398       .  A
C557        C558   1.411       .  A
C557       Br564   1.928       .  S
C558        C559   1.432       .  A
C558       Br563   1.920       .  S
C559        C560   1.426       .  A
C560       Br561   1.921   1_556  S
C565        C566   1.419       .  A
C565        C570   1.408       .  A
C566        C567   1.430       .  A
C567        C568   1.411       .  A
C567       Br574   1.919       .  S
C568        C569   1.398       .  A
C568       Br573   1.928       .  S
C569        C570   1.403       .  A
C575       Br582   1.927       .  S
C576        C577   1.427       .  A
C577        C578   1.408       .  A
C577       Br584   1.925       .  S
C578        C579   1.404       .  A
C578       Br583   1.932       .  S
C579        C580   1.406       .  A
C585        C586   1.421   1_655  A
C585        C590   1.415       .  A
C585       Br592   1.904       .  S
C586       C1995   1.418       .  A
C586       C1792   1.531       .  S
C587       C1994   1.418       .  A
C587        C588   1.409       .  A
C587       Br594   1.919       .  S
C588       C1997   1.408       .  A
C588       Br593   1.915       .  S
C589       C1996   1.408   1_655  A
C589        C590   1.410       .  A
C590       Br591   1.934       .  S
C595        C596   1.412       .  A
C595        C600   1.407       .  A
C595       Br602   1.925       .  S
C596        C597   1.409       .  A
C597        C598   1.407       .  A
C597       Br604   1.921       .  S
C598        C599   1.407       .  A
C598       Br603   1.915       .  S
C599        C600   1.427       .  A
C600       Br601   1.929       .  S
C605        C606   1.435       .  A
C605        C610   1.409       .  A
C605       Br612   1.906       .  S
C606        C607   1.426       .  A
C607        C608   1.416       .  A
C607       Br614   1.932       .  S
C608        C609   1.403       .  A
C608       Br613   1.929       .  S
C609        C610   1.392       .  A
C610       Br611   1.938       .  S
C615        C616   1.398       .  A
C615        C620   1.415       .  A
C615       Br622   1.930       .  S
C616        C617   1.395       .  A
C617        C618   1.403       .  A
C617       Br624   1.940       .  S
C618        C619   1.438       .  A
C618       Br623   1.922       .  S
C619        C620   1.440       .  A
C620      Br1325   1.928   1_545  S
Br621      C1324   1.928       .  S
C625        C626   1.435       .  A
C625        C630   1.405       .  A
C625      Br1336   1.911   1_545  S
C626        C627   1.426       .  A
C627        C628   1.415       .  A
C627       Br634   1.930       .  S
C628        C629   1.403       .  A
C628       Br633   1.930       .  S
C629        C630   1.393       .  A
C630       Br631   1.937       .  S
Br632      C1329   1.911       .  S
C635        C636   1.404       .  A
C635        C640   1.404       .  A
C635       Br642   1.934       .  S
C636       C2045   1.403   1_655  A
C637       C2044   1.403       .  A
C637        C638   1.411       .  A
C637       Br644   1.926       .  S
C638        C639   1.423       .  A
C638       Br643   1.924       .  S
C639       C2048   1.421       .  A
C640       C2047   1.421       .  A
C640       Br641   1.910       .  S
C645        C646   1.425       .  A
C645        C650   1.416       .  A
C645      Br1004   1.918   1_545  S
C646        C647   1.417       .  A
C647        C648   1.406       .  A
C647       Br654   1.932   1_556  S
C648        C649   1.406       .  A
C648       Br653   1.920   1_556  S
C649        C650   1.407       .  A
C650       Br651   1.935       .  S
Br652       C997   1.918       .  S
C655        C656   1.399       .  A
C655        C660   1.409       .  A
C655       Br662   1.915       .  S
C656        C657   1.403       .  A
C657        C658   1.414   1_556  A
C657       Br664   1.929   1_556  S
C658        C659   1.426   1_554  A
C658       Br663   1.920       .  S
C659        C660   1.428       .  A
C660      Br1365   1.921       .  S
Br661      C1364   1.921       .  S
C665        C666   1.424       .  A
C665        C670   1.412       .  A
C665       Br672   1.925   1_545  S
C666       C2075   1.422       .  A
C666       C1764   1.526       .  S
C667       C2074   1.422       .  A
C667        C668   1.409       .  A
C667       Br674   1.909       .  S
C668       C2077   1.404       .  A
C668       Br673   1.935       .  S
C669       C2076   1.404       .  A
C669        C670   1.403       .  A
C670       Br671   1.928       .  S
C675        C676   1.405       .  A
C675        C680   1.408       .  A
C675       Br682   1.919       .  S
C676        C677   1.399       .  A
C677        C678   1.412       .  A
C677       Br684   1.930       .  S
C678        C679   1.427       .  A
C678      Br1387   1.916       .  S
C679        C680   1.418       .  A
C680       Br681   1.931       .  S
Br683      C1382   1.916   1_545  S
C685        C686   1.423       .  A
C685        C690   1.407       .  A
C686        C687   1.430       .  A
C687        C688   1.410       .  A
C687       Br694   1.922       .  S
C688        C689   1.404       .  A
C688       Br693   1.935       .  S
C689        C690   1.404       .  A
C695       C2104   1.404       .  A
C695        C700   1.410       .  A
C695       Br702   1.935       .  S
C696       C2103   1.404       .  A
C696        C697   1.405       .  A
C697        C698   1.412       .  A
C697       Br704   1.918       .  S
C698        C699   1.421       .  A
C698       Br703   1.921       .  S
C699       C2108   1.422       .  A
C700       C2107   1.422       .  A
C700       Br701   1.901       .  S
C705       C2114   1.441       .  A
C705        C710   1.440       .  A
C705       C1051   1.530       .  S
C706       C2113   1.441       .  A
C706       C1038   1.521       .  S
C707        C708   1.439       .  A
C707       C1011   1.528       .  S
C708       C2117   1.438   1_455  A
C708       C2426   1.525       .  S
C709       C2116   1.438       .  A
C709        C998   1.515       .  S
C710       C1031   1.516       .  S
O711        C726   1.264       .  A
O711       Al719   1.933       .  S
C712        C988   1.476       .  S
C712        O722   1.261   1_655  A
C712       O2121   1.260       .  A
O713       C2120   1.260       .  A
O713       Al715   1.902       .  S
O714        C716   1.263       .  A
O714       Al715   1.921       .  S
Al715       O723   1.916       .  S
Al715       O725   1.876       .  S
Al715      O2132   1.784       .  S
C716        C961   1.478       .  S
C716        O729   1.259       .  A
O717        C727   1.266       .  A
O717      Al2127   1.932   1_455  S
O718        C731   1.261       .  A
O718       Al728   1.915       .  S
Al719      O2125   1.932       .  S
Al719      O2140   1.894       .  S
Al719       O729   1.897       .  S
Al719      O2132   1.802       .  S
O720        C727   1.259       .  A
O720       Al728   1.893       .  S
O721       C2138   1.260       .  A
O721       Al728   1.905       .  S
O722       Al728   1.914       .  S
O723        C730   1.261       .  A
O724      Al2123   1.784       .  S
O724      Al2127   1.802       .  S
O724       Al728   1.786   1_655  S
O725        C726   1.254       .  A
C726        C968   1.471       .  S
C727        C948   1.480       .  S
C730       C1021   1.480       .  S
C730       O2129   1.260       .  A
C731        C981   1.473       .  S
C731        O732   1.258       .  A
O732      Al2127   1.894   1_455  S
C733        C734   1.434       .  A
C733       C2146   1.436       .  A
C733        C991   1.520       .  S
C734       C1087   1.444       .  A
C734        C911   1.530       .  S
C735       C1086   1.444   1_554  A
C735        C736   1.441       .  A
C735        C928   1.514       .  S
C736       C2145   1.439       .  A
C736       C2346   1.531       .  S
C737       C2144   1.439       .  A
C737       C1090   1.433   1_554  A
C737        C918   1.518       .  S
C738       C2141   1.436   1_455  A
C738       C1089   1.433       .  A
C738        C901   1.508       .  S
O739        C754   1.260       .  A
O739      Al2155   1.938   1_455  S
C740       C1048   1.486       .  S
C740        O750   1.257       .  A
C740       O2149   1.264       .  A
O741       C2148   1.264       .  A
O741       Al743   1.918       .  S
O742        C744   1.263       .  A
O742       Al743   1.907       .  S
Al743       O751   1.899       .  S
Al743       O753   1.918       .  S
Al743      O2160   1.792   1_455  S
C744        C888   1.472       .  S
C744        O757   1.260       .  A
O745        C755   1.258       .  A
O745       Al747   1.916       .  S
O746        C759   1.268       .  A
O746       Al756   1.924       .  S
Al747      O2147   1.938       .  S
Al747       O760   1.898       .  S
Al747      O2165   1.893       .  S
Al747       O752   1.811       .  S
O748        C755   1.257       .  A
O748       Al756   1.918       .  S
O749       C2166   1.265       .  A
O749       Al756   1.926       .  S
O750       Al756   1.894       .  S
O751        C758   1.258   1_455  A
O752      Al2151   1.792       .  S
O752       Al756   1.795       .  S
O753        C754   1.263       .  A
C754        C861   1.503       .  S
C755        C878   1.489       .  S
O757      Al2155   1.893   1_455  S
C758        C941   1.495       .  S
C758       O2157   1.265       .  A
C759        C868   1.481       .  S
C759        O760   1.262       .  A
C761        C762   1.451       .  A
C761        C766   1.450       .  A
C761        C851   1.543       .  S
C762        C978   1.536       .  S
C763        C764   1.430       .  A
C763        C891   1.495       .  S
C764        C765   1.441       .  A
C764        C841   1.548       .  S
C765        C881   1.502       .  S
C766        C971   1.542       .  S
O767        C782   1.252       .  A
O767       Al775   1.904       .  S
C768        C838   1.500       .  S
C768        O778   1.262       .  A
C768        O769   1.263       .  A
O769       Al771   1.916       .  S
O770        C772   1.271       .  A
O770       Al771   1.928       .  S
Al771       O779   1.912       .  S
Al771       O781   1.914       .  S
Al771       O780   1.783       .  S
C772       C1041   1.482       .  S
C772        O785   1.265       .  A
O773        C783   1.252       .  A
O773       Al775   1.901       .  S
O774        C787   1.272       .  A
O774       Al784   1.927       .  S
Al775       O788   1.895       .  S
Al775       O785   1.898       .  S
Al775       O780   1.802       .  S
O776        C783   1.258       .  A
O776       Al784   1.913       .  S
O777        C786   1.261       .  A
O777       Al784   1.913       .  S
O778       Al784   1.920       .  S
O779        C786   1.260       .  A
O780       Al784   1.786       .  S
O781        C782   1.258       .  A
C782        C921   1.482       .  S
C783       C1028   1.483       .  S
C786        C831   1.487       .  S
C787        C931   1.481       .  S
C787        O788   1.263       .  A
C789        C790   1.446       .  A
C789        C794   1.441       .  A
C789        C821   1.545       .  S
C790        C791   1.428       .  A
C790        C958   1.534       .  S
C791        C792   1.436       .  A
C791        C871   1.508       .  S
C792        C793   1.437       .  A
C792        C828   1.511       .  S
C793        C794   1.449       .  A
C793        C858   1.534       .  S
C794        C951   1.540       .  S
O795        C810   1.263       .  A
O795       Al803   1.922       .  S
C796        C818   1.502       .  S
C796        O806   1.263       .  A
C796        O797   1.258       .  A
O797       Al799   1.898       .  S
O798        C800   1.268       .  A
O798       Al799   1.931       .  S
Al799       O807   1.949       .  S
Al799       O809   1.905       .  S
Al799       O808   1.784       .  S
C800        C908   1.489       .  S
C800        O813   1.259       .  A
O801        C811   1.264       .  A
O801       Al803   1.922       .  S
O802        C815   1.267       .  A
O802       Al812   1.931       .  S
Al803       O816   1.909       .  S
Al803       O813   1.902       .  S
Al803       O808   1.795       .  S
O804        C811   1.257       .  A
O804       Al812   1.886       .  S
O805        C814   1.260       .  A
O805       Al812   1.875       .  S
O806       Al812   1.931       .  S
O807        C814   1.263       .  A
O808       Al812   1.781       .  S
O809        C810   1.261       .  A
C810       C1001   1.487       .  S
C811        C898   1.478       .  S
C814        C848   1.498       .  S
C815       C1008   1.493       .  S
C815        O816   1.260       .  A
C817        C818   1.419       .  A
C817        C822   1.397       .  A
C817       Br824   1.922       .  S
C818        C819   1.424       .  A
C819        C820   1.423       .  A
C819       Br826   1.935       .  S
C820        C821   1.431       .  A
C820       Br825   1.930       .  S
C821        C822   1.397       .  A
C822       Br823   1.913       .  S
C827        C828   1.418       .  A
C827        C832   1.415       .  A
C827       Br834   1.933       .  S
C828        C829   1.413       .  A
C829        C830   1.402       .  A
C829       Br836   1.901       .  S
C830        C831   1.399       .  A
C830       Br835   1.922       .  S
C831        C832   1.408       .  A
C832       Br833   1.909       .  S
C837        C838   1.403       .  A
C837        C842   1.408       .  A
C837       Br844   1.936       .  S
C838        C839   1.411       .  A
C839        C840   1.421       .  A
C839       Br846   1.915       .  S
C840        C841   1.423       .  A
C841        C842   1.424       .  A
C842       Br843   1.898       .  S
C847        C848   1.421       .  A
C847        C852   1.415       .  A
C847       Br854   1.923       .  S
C848        C849   1.421       .  A
C849        C850   1.400       .  A
C849       Br856   1.917       .  S
C850        C851   1.393       .  A
C850       Br855   1.916       .  S
C851        C852   1.411       .  A
C852       Br853   1.912       .  S
C857        C858   1.425       .  A
C857        C862   1.421       .  A
C857       Br864   1.929       .  S
C858        C859   1.431       .  A
C859        C860   1.406       .  A
C859       Br866   1.903       .  S
C860        C861   1.393       .  A
C860       Br865   1.926       .  S
C861        C862   1.410       .  A
C862       Br863   1.913       .  S
C867        C868   1.405       .  A
C867        C872   1.409       .  A
C867       Br874   1.932       .  S
C868        C869   1.408       .  A
C869        C870   1.410       .  A
C869       Br876   1.935       .  S
C870        C871   1.420       .  A
C870       Br875   1.942       .  S
C871        C872   1.417       .  A
C872       Br873   1.911       .  S
C877        C878   1.403       .  A
C877        C882   1.394       .  A
C877       Br884   1.904       .  S
C878        C879   1.412       .  A
C879        C880   1.422       .  A
C879       Br886   1.924       .  S
C880        C881   1.424       .  A
C880       Br885   1.930   1_565  S
C881        C882   1.408       .  A
C882       Br883   1.934       .  S
C887        C888   1.404       .  A
C887        C892   1.403       .  A
C887       Br894   1.927       .  S
C888        C889   1.406       .  A
C889        C890   1.406       .  A
C889       Br896   1.932       .  S
C890        C891   1.420       .  A
C891        C892   1.417       .  A
C892       Br893   1.955       .  S
C897        C898   1.404       .  A
C897        C902   1.404       .  A
C897       Br904   1.926       .  S
C898        C899   1.407       .  A
C899        C900   1.412       .  A
C899       Br906   1.935       .  S
C900        C901   1.423       .  A
C900       Br905   1.920       .  S
C901        C902   1.418       .  A
C902       Br903   1.931       .  S
C907        C908   1.402       .  A
C907        C912   1.412       .  A
C907       Br914   1.930       .  S
C908        C909   1.398       .  A
C909        C910   1.411       .  A
C909       Br916   1.928       .  S
C910        C911   1.432       .  A
C910       Br915   1.920       .  S
C911        C912   1.425       .  A
C912       Br913   1.921       .  S
C917        C918   1.419   1_556  A
C917        C922   1.408   1_556  A
C917      Br1276   1.930       .  S
C918        C919   1.430       .  A
C919        C920   1.411       .  A
C919       Br926   1.919       .  S
C920        C921   1.398       .  A
C920       Br925   1.928       .  S
C921        C922   1.403       .  A
C922      Br1275   1.918   1_554  S
Br923      C1274   1.918       .  S
Br924      C1269   1.930       .  S
C927       C1280   1.421       .  A
C927       C1284   1.406       .  A
C927       Br934   1.927       .  S
C928       C1279   1.421   1_554  A
C928        C929   1.427       .  A
C929        C930   1.408       .  A
C929       Br936   1.925       .  S
C930        C931   1.404       .  A
C930       Br935   1.933       .  S
C931        C932   1.406       .  A
C932       C1279   1.406   1_554  A
C932      Br1285   1.934   1_554  S
Br933      C1284   1.934       .  S
C937        C938   1.421   1_655  A
C937        C942   1.414       .  A
C937       Br944   1.903       .  S
C938       C2347   1.418       .  A
C938       C2144   1.531       .  S
C939       C2346   1.418       .  A
C939        C940   1.409       .  A
C939       Br946   1.919       .  S
C940       C2349   1.407       .  A
C940       Br945   1.914       .  S
C941       C2348   1.407   1_655  A
C941        C942   1.410       .  A
C942       Br943   1.934       .  S
C947        C948   1.412       .  A
C947        C952   1.408       .  A
C947       Br954   1.926       .  S
C948        C949   1.409       .  A
C949        C950   1.407       .  A
C949       Br956   1.921       .  S
C950        C951   1.407       .  A
C950       Br955   1.915       .  S
C951        C952   1.428       .  A
C952       Br953   1.929       .  S
C957        C958   1.435       .  A
C957        C962   1.409       .  A
C957       Br964   1.905       .  S
C958        C959   1.427       .  A
C959        C960   1.416       .  A
C959       Br966   1.932       .  S
C960        C961   1.403       .  A
C960       Br965   1.929       .  S
C961        C962   1.392       .  A
C962       Br963   1.938       .  S
C967        C968   1.398       .  A
C967        C972   1.415       .  A
C967       Br974   1.930       .  S
C968        C969   1.395       .  A
C969        C970   1.403       .  A
C969       Br976   1.940       .  S
C970        C971   1.438       .  A
C970       Br975   1.922       .  S
C971        C972   1.440       .  A
C977        C978   1.436       .  A
C977        C982   1.406       .  A
C978        C979   1.426       .  A
C979        C980   1.415       .  A
C979       Br986   1.930       .  S
C980        C981   1.403       .  A
C980       Br985   1.930       .  S
C981        C982   1.393       .  A
C982       Br983   1.937       .  S
C987        C988   1.404       .  A
C987        C992   1.404       .  A
C987       Br994   1.934       .  S
C988       C2397   1.403   1_655  A
C989       C2396   1.403       .  A
C989        C990   1.411       .  A
C989       Br996   1.926       .  S
C990        C991   1.423       .  A
C990       Br995   1.924       .  S
C991       C2400   1.421       .  A
C992       C2399   1.421       .  A
C992       Br993   1.910       .  S
C997        C998   1.425       .  A
C997       C1002   1.416       .  A
C998        C999   1.417       .  A
C999       C1000   1.406       .  A
C999      Br1006   1.932       .  S
C1000      C1001   1.406       .  A
C1000     Br1005   1.920       .  S
C1001      C1002   1.407       .  A
C1002     Br1003   1.935       .  S
C1007      C1008   1.399       .  A
C1007      C1012   1.409       .  A
C1007     Br1014   1.915       .  S
C1008      C1009   1.403       .  A
C1009      C1010   1.414       .  A
C1009     Br1016   1.929       .  S
C1010      C1011   1.426       .  A
C1010     Br1015   1.920       .  S
C1011      C1012   1.428       .  A
C1017      C1018   1.424       .  A
C1017      C1022   1.412       .  A
C1017     Br1024   1.925       .  S
C1018      C2427   1.422       .  A
C1018      C2116   1.525       .  S
C1019      C2426   1.422       .  A
C1019      C1020   1.409       .  A
C1019     Br1026   1.909       .  S
C1020      C2429   1.404       .  A
C1020     Br1025   1.935       .  S
C1021      C2428   1.404       .  A
C1021      C1022   1.403       .  A
C1022     Br1023   1.928       .  S
C1027      C1028   1.405       .  A
C1027      C1032   1.408       .  A
C1027     Br1034   1.920   1_554  S
C1028      C1029   1.399       .  A
C1029      C1030   1.412       .  A
C1029     Br1036   1.930       .  S
C1030      C1031   1.427       .  A
C1031      C1032   1.418       .  A
C1032     Br1033   1.931   1_554  S
C1037      C1038   1.423   1_556  A
C1037      C1042   1.407   1_556  A
C1037     Br1396   1.925       .  S
C1038      C1039   1.430       .  A
C1039      C1040   1.410       .  A
C1039     Br1046   1.923       .  S
C1040      C1041   1.403       .  A
C1040     Br1045   1.935       .  S
C1041      C1042   1.404       .  A
C1042     Br1395   1.933   1_554  S
Br1043     C1394   1.933       .  S
Br1044     C1389   1.925       .  S
C1047      C2456   1.404       .  A
C1047      C1052   1.410       .  A
C1047     Br1054   1.935       .  S
C1048      C2455   1.404       .  A
C1048      C1049   1.405       .  A
C1049      C1050   1.412       .  A
C1049     Br1056   1.918       .  S
C1050      C1051   1.421       .  A
C1050     Br1055   1.921   1_565  S
C1051      C2460   1.422       .  A
C1052      C2459   1.422       .  A
C1052     Br1053   1.901       .  S
C1057      C2466   1.441       .  A
C1057      C1062   1.440       .  A
C1057      C1403   1.530       .  S
C1058      C2465   1.441       .  A
C1058      C1390   1.521       .  S
C1059      C1060   1.439       .  A
C1059      C1363   1.528       .  S
C1060      C2469   1.438   1_455  A
C1060      C2778   1.525       .  S
C1061      C2468   1.438       .  A
C1061      C1350   1.515       .  S
C1062      C1383   1.516       .  S
O1063      C1078   1.264       .  A
O1063     Al1071   1.933       .  S
C1064      C1340   1.476       .  S
C1064      O1074   1.261   1_655  A
C1064      O2473   1.260       .  A
O1065      C2472   1.260       .  A
O1065     Al1067   1.902       .  S
O1066      C1068   1.263       .  A
O1066     Al1067   1.921       .  S
Al1067     O1075   1.916       .  S
Al1067     O1077   1.876       .  S
Al1067     O2484   1.784       .  S
C1068      C1313   1.478       .  S
C1068      O1081   1.259       .  A
O1069      C1079   1.266       .  A
O1069     Al2479   1.932   1_455  S
O1070      C1083   1.261       .  A
O1070     Al1080   1.915       .  S
Al1071     O2477   1.932       .  S
Al1071     O2492   1.894       .  S
Al1071     O1081   1.897       .  S
Al1071     O2484   1.802       .  S
O1072      C1079   1.259       .  A
O1072     Al1080   1.893       .  S
O1073      C2490   1.260       .  A
O1073     Al1080   1.905       .  S
O1074     Al1080   1.914       .  S
O1075      C1082   1.261       .  A
O1076     Al2475   1.784       .  S
O1076     Al2479   1.802       .  S
O1076     Al1080   1.786   1_655  S
O1077      C1078   1.254       .  A
C1078      C1320   1.471       .  S
C1079      C1300   1.480       .  S
C1082      C1373   1.480       .  S
C1082      O2481   1.260       .  A
C1083      C1333   1.473       .  S
C1083      O1084   1.258       .  A
O1084     Al2479   1.894   1_455  S
C1085      C1086   1.434       .  A
C1085      C2498   1.436       .  A
C1085      C1343   1.520       .  S
C1086      C1263   1.530       .  S
C1087      C1088   1.441       .  A
C1087      C1280   1.514       .  S
C1088      C2497   1.439       .  A
C1088      C2698   1.531       .  S
C1089      C2496   1.439       .  A
C1089      C1270   1.518       .  S
C1090      C2493   1.436   1_455  A
C1090      C1253   1.508       .  S
O1091      C1106   1.260       .  A
O1091     Al2507   1.938   1_455  S
C1092      C1400   1.486       .  S
C1092      O1102   1.257       .  A
C1092      O2501   1.264       .  A
O1093      C2500   1.264       .  A
O1093     Al1095   1.918       .  S
O1094      C1096   1.263       .  A
O1094     Al1095   1.907       .  S
Al1095     O1103   1.899       .  S
Al1095     O1105   1.918       .  S
Al1095     O2512   1.792   1_455  S
C1096      C1240   1.472       .  S
C1096      O1109   1.260       .  A
O1097      C1107   1.258       .  A
O1097     Al1099   1.916       .  S
O1098      C1111   1.268       .  A
O1098     Al1108   1.924       .  S
Al1099     O2499   1.938       .  S
Al1099     O1112   1.898       .  S
Al1099     O2517   1.893       .  S
Al1099     O1104   1.811       .  S
O1100      C1107   1.257       .  A
O1100     Al1108   1.918       .  S
O1101      C2518   1.265       .  A
O1101     Al1108   1.926       .  S
O1102     Al1108   1.894       .  S
O1103      C1110   1.258   1_455  A
O1104     Al2503   1.792       .  S
O1104     Al1108   1.795       .  S
O1105      C1106   1.263       .  A
C1106      C1213   1.503       .  S
C1107      C1230   1.489       .  S
O1109     Al2507   1.893   1_455  S
C1110      C1293   1.495       .  S
C1110      O2509   1.265       .  A
C1111      C1220   1.481       .  S
C1111      O1112   1.262       .  A
C1113      C1114   1.451       .  A
C1113      C1118   1.450       .  A
C1113      C1203   1.543       .  S
C1114      C1330   1.536       .  S
C1115      C1116   1.430       .  A
C1115      C1243   1.495       .  S
C1116      C1117   1.441       .  A
C1116      C1193   1.548       .  S
C1117      C1233   1.502       .  S
C1118      C1323   1.542       .  S
O1119      C1134   1.252       .  A
O1119     Al1127   1.904       .  S
C1120      C1190   1.500       .  S
C1120      O1130   1.262       .  A
C1120      O1121   1.263       .  A
O1121     Al1123   1.916       .  S
O1122      C1124   1.271       .  A
O1122     Al1123   1.928       .  S
Al1123     O1131   1.912       .  S
Al1123     O1133   1.914       .  S
Al1123     O1132   1.783       .  S
C1124      C1393   1.482       .  S
C1124      O1137   1.265       .  A
O1125      C1135   1.252       .  A
O1125     Al1127   1.901       .  S
O1126      C1139   1.272       .  A
O1126     Al1136   1.927       .  S
Al1127     O1140   1.895       .  S
Al1127     O1137   1.898       .  S
Al1127     O1132   1.802       .  S
O1128      C1135   1.258       .  A
O1128     Al1136   1.913       .  S
O1129      C1138   1.261       .  A
O1129     Al1136   1.913       .  S
O1130     Al1136   1.920       .  S
O1131      C1138   1.260       .  A
O1132     Al1136   1.786       .  S
O1133      C1134   1.258       .  A
C1134      C1273   1.482       .  S
C1135      C1380   1.483       .  S
C1138      C1183   1.487       .  S
C1139      C1283   1.481       .  S
C1139      O1140   1.263       .  A
C1141      C1142   1.446       .  A
C1141      C1146   1.441       .  A
C1141      C1173   1.545       .  S
C1142      C1143   1.428       .  A
C1142      C1310   1.534       .  S
C1143      C1144   1.436       .  A
C1143      C1223   1.508       .  S
C1144      C1145   1.437       .  A
C1144      C1180   1.511       .  S
C1145      C1146   1.449       .  A
C1145      C1210   1.534       .  S
C1146      C1303   1.540       .  S
O1147      C1162   1.263       .  A
O1147     Al1155   1.922       .  S
C1148      C1170   1.502       .  S
C1148      O1158   1.263       .  A
C1148      O1149   1.258       .  A
O1149     Al1151   1.898       .  S
O1150      C1152   1.268       .  A
O1150     Al1151   1.931       .  S
Al1151     O1159   1.949       .  S
Al1151     O1161   1.905       .  S
Al1151     O1160   1.784       .  S
C1152      C1260   1.489       .  S
C1152      O1165   1.259       .  A
O1153      C1163   1.264       .  A
O1153     Al1155   1.922       .  S
O1154      C1167   1.267       .  A
O1154     Al1164   1.931       .  S
Al1155     O1168   1.909       .  S
Al1155     O1165   1.902       .  S
Al1155     O1160   1.795       .  S
O1156      C1163   1.257       .  A
O1156     Al1164   1.886       .  S
O1157      C1166   1.260       .  A
O1157     Al1164   1.875       .  S
O1158     Al1164   1.931       .  S
O1159      C1166   1.263       .  A
O1160     Al1164   1.781       .  S
O1161      C1162   1.261       .  A
C1162      C1353   1.487       .  S
C1163      C1250   1.478       .  S
C1166      C1200   1.498       .  S
C1167      C1360   1.493       .  S
C1167      O1168   1.260       .  A
C1169      C1170   1.419       .  A
C1169      C1174   1.397       .  A
C1169     Br1176   1.922       .  S
C1170      C1171   1.424       .  A
C1171      C1172   1.423       .  A
C1171     Br1178   1.935       .  S
C1172      C1173   1.431       .  A
C1172     Br1177   1.930       .  S
C1173      C1174   1.397       .  A
C1174     Br1175   1.913       .  S
C1179      C1180   1.418       .  A
C1179      C1184   1.415       .  A
C1179     Br1186   1.933       .  S
C1180      C1181   1.413       .  A
C1181      C1182   1.402       .  A
C1181     Br1188   1.901       .  S
C1182      C1183   1.399       .  A
C1182     Br1187   1.922       .  S
C1183      C1184   1.408       .  A
C1184     Br1185   1.909       .  S
C1189      C1190   1.403       .  A
C1189      C1194   1.408       .  A
C1189     Br1196   1.936       .  S
C1190      C1191   1.411       .  A
C1191      C1192   1.421       .  A
C1191     Br1198   1.915       .  S
C1192      C1193   1.423       .  A
C1193      C1194   1.424       .  A
C1194     Br1195   1.898       .  S
C1199      C1200   1.421       .  A
C1199      C1204   1.415       .  A
C1199     Br1206   1.923       .  S
C1200      C1201   1.421       .  A
C1201      C1202   1.400       .  A
C1201     Br1208   1.917       .  S
C1202      C1203   1.393       .  A
C1202     Br1207   1.916       .  S
C1203      C1204   1.411       .  A
C1204     Br1205   1.912       .  S
C1209      C1210   1.425       .  A
C1209      C1214   1.421       .  A
C1209     Br1216   1.929       .  S
C1210      C1211   1.431       .  A
C1211      C1212   1.406       .  A
C1211     Br1218   1.903       .  S
C1212      C1213   1.393       .  A
C1212     Br1217   1.926       .  S
C1213      C1214   1.410       .  A
C1214     Br1215   1.913       .  S
C1219      C1220   1.405       .  A
C1219      C1224   1.409       .  A
C1219     Br1226   1.932       .  S
C1220      C1221   1.408       .  A
C1221      C1222   1.410       .  A
C1221     Br1228   1.935       .  S
C1222      C1223   1.420       .  A
C1222     Br1227   1.942       .  S
C1223      C1224   1.417       .  A
C1224     Br1225   1.911       .  S
C1229      C1230   1.403       .  A
C1229      C1234   1.394       .  A
C1229     Br1236   1.904       .  S
C1230      C1231   1.412       .  A
C1231      C1232   1.422       .  A
C1231     Br1238   1.924       .  S
C1232      C1233   1.424       .  A
C1232     Br1237   1.930   1_565  S
C1233      C1234   1.408       .  A
C1234     Br1235   1.934       .  S
C1239      C1240   1.404       .  A
C1239      C1244   1.403       .  A
C1239     Br1246   1.927       .  S
C1240      C1241   1.406       .  A
C1241      C1242   1.406       .  A
C1241     Br1248   1.932       .  S
C1242      C1243   1.420       .  A
C1243      C1244   1.417       .  A
C1244     Br1245   1.955       .  S
C1249      C1250   1.404       .  A
C1249      C1254   1.404       .  A
C1249     Br1256   1.926       .  S
C1250      C1251   1.407       .  A
C1251      C1252   1.412       .  A
C1251     Br1258   1.935       .  S
C1252      C1253   1.423       .  A
C1252     Br1257   1.920       .  S
C1253      C1254   1.418       .  A
C1254     Br1255   1.931   1_556  S
C1259      C1260   1.402       .  A
C1259      C1264   1.412       .  A
C1259     Br1266   1.930   1_556  S
C1260      C1261   1.398       .  A
C1261      C1262   1.411       .  A
C1261     Br1268   1.928       .  S
C1262      C1263   1.432       .  A
C1262     Br1267   1.920       .  S
C1263      C1264   1.425       .  A
C1264     Br1265   1.921   1_556  S
C1269      C1270   1.419       .  A
C1269      C1274   1.408       .  A
C1270      C1271   1.430       .  A
C1271      C1272   1.411       .  A
C1271     Br1278   1.919       .  S
C1272      C1273   1.398       .  A
C1272     Br1277   1.928       .  S
C1273      C1274   1.403       .  A
C1279     Br1286   1.927       .  S
C1280      C1281   1.427       .  A
C1281      C1282   1.408       .  A
C1281     Br1288   1.925       .  S
C1282      C1283   1.404       .  A
C1282     Br1287   1.933       .  S
C1283      C1284   1.406       .  A
C1289      C1290   1.421   1_655  A
C1289      C1294   1.414       .  A
C1289     Br1296   1.903       .  S
C1290      C2699   1.418       .  A
C1290      C2496   1.531       .  S
C1291      C2698   1.418       .  A
C1291      C1292   1.409       .  A
C1291     Br1298   1.919       .  S
C1292      C2701   1.407       .  A
C1292     Br1297   1.914       .  S
C1293      C2700   1.407   1_655  A
C1293      C1294   1.410       .  A
C1294     Br1295   1.934       .  S
C1299      C1300   1.412       .  A
C1299      C1304   1.408       .  A
C1299     Br1306   1.926       .  S
C1300      C1301   1.409       .  A
C1301      C1302   1.407       .  A
C1301     Br1308   1.921       .  S
C1302      C1303   1.407       .  A
C1302     Br1307   1.915       .  S
C1303      C1304   1.428       .  A
C1304     Br1305   1.929       .  S
C1309      C1310   1.435       .  A
C1309      C1314   1.409       .  A
C1309     Br1316   1.905       .  S
C1310      C1311   1.427       .  A
C1311      C1312   1.416       .  A
C1311     Br1318   1.932       .  S
C1312      C1313   1.403       .  A
C1312     Br1317   1.929       .  S
C1313      C1314   1.392       .  A
C1314     Br1315   1.938       .  S
C1319      C1320   1.398       .  A
C1319      C1324   1.415       .  A
C1319     Br1326   1.930       .  S
C1320      C1321   1.395       .  A
C1321      C1322   1.403       .  A
C1321     Br1328   1.940       .  S
C1322      C1323   1.438       .  A
C1322     Br1327   1.922       .  S
C1323      C1324   1.440       .  A
C1329      C1330   1.436       .  A
C1329      C1334   1.406       .  A
C1330      C1331   1.426       .  A
C1331      C1332   1.415       .  A
C1331     Br1338   1.930       .  S
C1332      C1333   1.403       .  A
C1332     Br1337   1.930       .  S
C1333      C1334   1.393       .  A
C1334     Br1335   1.937       .  S
C1339      C1340   1.404       .  A
C1339      C1344   1.404       .  A
C1339     Br1346   1.934       .  S
C1340      C2749   1.403   1_655  A
C1341      C2748   1.403       .  A
C1341      C1342   1.411       .  A
C1341     Br1348   1.926       .  S
C1342      C1343   1.423       .  A
C1342     Br1347   1.924       .  S
C1343      C2752   1.421       .  A
C1344      C2751   1.421       .  A
C1344     Br1345   1.910       .  S
C1349      C1350   1.425       .  A
C1349      C1354   1.416       .  A
C1350      C1351   1.417       .  A
C1351      C1352   1.406       .  A
C1351     Br1358   1.932   1_556  S
C1352      C1353   1.406       .  A
C1352     Br1357   1.920   1_556  S
C1353      C1354   1.407       .  A
C1354     Br1355   1.935       .  S
C1359      C1360   1.399       .  A
C1359      C1364   1.409       .  A
C1359     Br1366   1.915       .  S
C1360      C1361   1.403       .  A
C1361      C1362   1.414   1_556  A
C1361     Br1368   1.929   1_556  S
C1362      C1363   1.426   1_554  A
C1362     Br1367   1.920       .  S
C1363      C1364   1.428       .  A
C1369      C1370   1.424       .  A
C1369      C1374   1.412       .  A
C1369     Br1376   1.925       .  S
C1370      C2779   1.422       .  A
C1370      C2468   1.525       .  S
C1371      C2778   1.422       .  A
C1371      C1372   1.409       .  A
C1371     Br1378   1.909       .  S
C1372      C2781   1.404       .  A
C1372     Br1377   1.935       .  S
C1373      C2780   1.404       .  A
C1373      C1374   1.403       .  A
C1374     Br1375   1.928       .  S
C1379      C1380   1.405       .  A
C1379      C1384   1.408       .  A
C1379     Br1386   1.920       .  S
C1380      C1381   1.399       .  A
C1381      C1382   1.412       .  A
C1381     Br1388   1.930       .  S
C1382      C1383   1.427       .  A
C1383      C1384   1.418       .  A
C1384     Br1385   1.931       .  S
C1389      C1390   1.423       .  A
C1389      C1394   1.407       .  A
C1390      C1391   1.430       .  A
C1391      C1392   1.410       .  A
C1391     Br1398   1.923       .  S
C1392      C1393   1.403       .  A
C1392     Br1397   1.935       .  S
C1393      C1394   1.404       .  A
C1399      C2808   1.404       .  A
C1399      C1404   1.410       .  A
C1399     Br1406   1.935       .  S
C1400      C2807   1.404       .  A
C1400      C1401   1.405       .  A
C1401      C1402   1.412       .  A
C1401     Br1408   1.918       .  S
C1402      C1403   1.421       .  A
C1402     Br1407   1.921   1_565  S
C1403      C2812   1.422       .  A
C1404      C2811   1.422       .  A
C1404     Br1405   1.901       .  S
C1409      C1414   1.440   1_455  A
C1409      C1755   1.529       .  S
C1410      C2467   1.445   1_554  A
C1410      C1742   1.522       .  S
C1411      C2466   1.445   1_545  A
C1411      C1412   1.439       .  A
C1411      C1715   1.528       .  S
C1413      C2470   1.435   1_545  A
C1413      C1702   1.515       .  S
C1414      C2469   1.435   1_554  A
C1414      C1735   1.515       .  S
O1415      C1430   1.264       .  A
O1415     Al1423   1.933       .  S
C1416      C1692   1.476       .  S
C1416      O1426   1.261       .  A
O1417     Al1419   1.902       .  S
O1418      C1420   1.263       .  A
O1418     Al1419   1.921       .  S
Al1419     O1427   1.916       .  S
Al1419     O1429   1.876       .  S
C1420      C1665   1.477       .  S
C1420      O1433   1.259       .  A
O1421      C1431   1.266       .  A
O1422      C1435   1.261       .  A
O1422     Al1432   1.915       .  S
Al1423     O1433   1.896       .  S
O1424      C1431   1.259       .  A
O1424     Al1432   1.893       .  S
O1425     Al1432   1.906       .  S
O1426     Al1432   1.914       .  S
O1427      C1434   1.261   1_655  A
O1428     Al1432   1.786       .  S
O1429      C1430   1.254       .  A
C1430      C1672   1.471       .  S
C1431      C1652   1.480       .  S
C1434      C1725   1.480       .  S
C1435      C1685   1.473       .  S
C1435      O1436   1.258       .  A
C1437      C1438   1.434       .  A
C1437      C1695   1.520       .  S
C1438      C1791   1.444       .  A
C1438      C1615   1.531       .  S
C1439      C1790   1.444   1_554  A
C1439      C1440   1.441   1_655  A
C1439      C1632   1.514       .  S
C1441      C1794   1.433   1_554  A
C1441      C1622   1.518       .  S
C1442      C1793   1.433       .  A
C1442      C1605   1.508       .  S
O1443      C1458   1.260       .  A
C1444      C1752   1.485       .  S
C1444      O1454   1.257   1_455  A
O1445     Al1447   1.918       .  S
O1446      C1448   1.263       .  A
O1446     Al1447   1.907       .  S
Al1447     O1455   1.899       .  S
Al1447     O1457   1.918       .  S
C1448      C1592   1.473       .  S
C1448      O1461   1.260       .  A
O1449      C1459   1.258       .  A
O1449     Al1451   1.916       .  S
O1450      C1463   1.268       .  A
O1450     Al1460   1.923       .  S
Al1451     O1464   1.898       .  S
Al1451     O1456   1.811       .  S
O1452      C1459   1.258       .  A
O1452     Al1460   1.920       .  S
O1453     Al1460   1.927       .  S
O1454     Al1460   1.894       .  S
O1455      C1462   1.258       .  A
O1456     Al1460   1.795       .  S
O1457      C1458   1.263       .  A
C1458      C1565   1.503       .  S
C1459      C1582   1.489       .  S
C1462      C1645   1.495       .  S
C1463      C1572   1.481       .  S
C1463      O1464   1.262       .  A
C1465      C1466   1.451       .  A
C1465      C1470   1.450       .  A
C1465      C1555   1.542       .  S
C1466      C2171   1.431   1_545  A
C1466      C1682   1.535       .  S
C1467      C2170   1.431       .  A
C1467      C1468   1.431       .  A
C1467      C1595   1.495       .  S
C1468      C1469   1.441       .  A
C1468      C1545   1.548       .  S
C1469      C2174   1.448       .  A
C1469      C1585   1.502       .  S
C1470      C2173   1.448   1_545  A
C1470      C1675   1.542       .  S
O1471      C1486   1.252       .  A
O1471     Al1479   1.904       .  S
C1472      C1542   1.500       .  S
C1472      O1482   1.262       .  A
C1472      O1473   1.263       .  A
O1473     Al1475   1.917       .  S
O1474      C1476   1.272       .  A
O1474     Al1475   1.928       .  S
Al1475     O1483   1.911       .  S
Al1475     O1485   1.914       .  S
Al1475     O1484   1.783       .  S
C1476      C1745   1.482       .  S
C1476      O1489   1.265       .  A
O1477      C1487   1.252       .  A
O1477     Al1479   1.901       .  S
O1478      C1491   1.272       .  A
O1478     Al1488   1.928       .  S
Al1479     O1492   1.895       .  S
Al1479     O1489   1.898       .  S
Al1479     O1484   1.802       .  S
O1480      C1487   1.258       .  A
O1480     Al1488   1.913       .  S
O1481      C1490   1.261       .  A
O1481     Al1488   1.912       .  S
O1482     Al1488   1.921       .  S
O1483      C1490   1.260       .  A
O1484     Al1488   1.786       .  S
O1485      C1486   1.258       .  A
C1486      C1625   1.482       .  S
C1487      C1732   1.483       .  S
C1490      C1535   1.486       .  S
C1491      C1635   1.481       .  S
C1491      O1492   1.263       .  A
C1493      C1494   1.446       .  A
C1493      C1498   1.441       .  A
C1493      C1525   1.545       .  S
C1494      C1495   1.428       .  A
C1494      C1662   1.533       .  S
C1495      C1496   1.435       .  A
C1495      C1575   1.508       .  S
C1496      C1497   1.436       .  A
C1496      C1532   1.510       .  S
C1497      C1498   1.449       .  A
C1497      C1562   1.534       .  S
C1498      C1655   1.540       .  S
O1499      C1514   1.263       .  A
O1499     Al1507   1.922       .  S
C1500      C1522   1.501       .  S
C1500      O1510   1.263       .  A
C1500      O1501   1.258       .  A
O1501     Al1503   1.897       .  S
O1502      C1504   1.268       .  A
O1502     Al1503   1.931       .  S
Al1503     O1511   1.950       .  S
Al1503     O1513   1.904       .  S
Al1503     O1512   1.784       .  S
C1504      C1612   1.489       .  S
C1504      O1517   1.259       .  A
O1505      C1515   1.264       .  A
O1505     Al1507   1.921       .  S
O1506      C1519   1.267       .  A
O1506     Al1516   1.931       .  S
Al1507     O1520   1.909       .  S
Al1507     O1517   1.902       .  S
Al1507     O1512   1.795       .  S
O1508      C1515   1.257       .  A
O1508     Al1516   1.886       .  S
O1509      C1518   1.261       .  A
O1509     Al1516   1.874       .  S
O1510     Al1516   1.931       .  S
O1511      C1518   1.262       .  A
O1512     Al1516   1.780       .  S
O1513      C1514   1.261       .  A
C1514      C1705   1.486       .  S
C1515      C1602   1.478       .  S
C1518      C1552   1.498       .  S
C1519      C1712   1.493       .  S
C1519      O1520   1.260       .  A
C1521      C1522   1.419       .  A
C1521      C1526   1.397       .  A
C1521     Br1528   1.922       .  S
C1522      C1523   1.424       .  A
C1523      C1524   1.423       .  A
C1523     Br1530   1.935       .  S
C1524      C1525   1.431       .  A
C1524     Br1529   1.930       .  S
C1525      C1526   1.397       .  A
C1526     Br1527   1.913       .  S
C1531      C1532   1.418       .  A
C1531      C1536   1.415       .  A
C1531     Br1538   1.933       .  S
C1532      C1533   1.413       .  A
C1533      C1534   1.401       .  A
C1533     Br1540   1.901       .  S
C1534      C1535   1.399       .  A
C1534     Br1539   1.921       .  S
C1535      C1536   1.408       .  A
C1536     Br1537   1.909       .  S
C1541      C1542   1.403       .  A
C1541      C1546   1.408       .  A
C1541     Br1548   1.937       .  S
C1542      C1543   1.411       .  A
C1543      C1544   1.421       .  A
C1543     Br1550   1.915       .  S
C1544      C1545   1.423       .  A
C1544     Br2253   1.921       .  S
C1545      C1546   1.425       .  A
C1546     Br1547   1.898       .  S
Br1549     C2248   1.921   1_545  S
C1551      C1552   1.422       .  A
C1551      C1556   1.416       .  A
C1551     Br1558   1.923       .  S
C1552      C1553   1.420       .  A
C1553      C1554   1.400       .  A
C1553     Br1560   1.917       .  S
C1554      C1555   1.393       .  A
C1554     Br1559   1.916       .  S
C1555      C1556   1.411       .  A
C1556     Br1557   1.912   1_545  S
C1561      C1562   1.425       .  A
C1561      C1566   1.422       .  A
C1561     Br1568   1.929       .  S
C1562      C1563   1.431       .  A
C1563      C1564   1.406       .  A
C1563     Br1570   1.903       .  S
C1564      C1565   1.392       .  A
C1564     Br1569   1.926       .  S
C1565      C1566   1.410       .  A
C1566     Br1567   1.913       .  S
C1571      C1572   1.405       .  A
C1571      C1576   1.409       .  A
C1571     Br1578   1.932       .  S
C1572      C1573   1.408       .  A
C1573      C1574   1.410       .  A
C1573     Br1580   1.935       .  S
C1574      C1575   1.420       .  A
C1574     Br1579   1.942       .  S
C1575      C1576   1.417       .  A
C1576     Br1577   1.911       .  S
C1581      C1582   1.403       .  A
C1581      C1586   1.394       .  A
C1581     Br1588   1.904       .  S
C1582      C1583   1.412       .  A
C1583      C1584   1.422       .  A
C1583     Br1590   1.924       .  S
C1584      C1585   1.424       .  A
C1584     Br1589   1.929       .  S
C1585      C1586   1.408       .  A
C1586     Br1587   1.934       .  S
C1591      C1592   1.404       .  A
C1591      C1596   1.403       .  A
C1591     Br1598   1.926       .  S
C1592      C1593   1.406       .  A
C1593      C1594   1.406       .  A
C1593     Br1600   1.932       .  S
C1594      C1595   1.420       .  A
C1594     Br2303   1.921       .  S
C1595      C1596   1.417       .  A
C1596     Br1597   1.955       .  S
Br1599     C2298   1.921   1_545  S
C1601      C1602   1.404       .  A
C1601      C1606   1.404       .  A
C1601     Br1608   1.926       .  S
C1602      C1603   1.407       .  A
C1603      C1604   1.412       .  A
C1603     Br1610   1.935       .  S
C1604      C1605   1.423       .  A
C1604     Br1609   1.920       .  S
C1605      C1606   1.418       .  A
C1606     Br1607   1.931       .  S
C1611      C1612   1.402       .  A
C1611      C1616   1.412       .  A
C1611     Br1618   1.930       .  S
C1612      C1613   1.398       .  A
C1613      C1614   1.411       .  A
C1613     Br1620   1.928       .  S
C1614      C1615   1.432       .  A
C1614     Br1619   1.920       .  S
C1615      C1616   1.426       .  A
C1616     Br1617   1.921       .  S
C1621      C1622   1.419   1_556  A
C1621      C1626   1.408   1_556  A
C1621     Br1980   1.930       .  S
C1622      C1623   1.430       .  A
C1623      C1624   1.411       .  A
C1623     Br1630   1.919       .  S
C1624      C1625   1.398       .  A
C1624     Br1629   1.928       .  S
C1625      C1626   1.403       .  A
C1626     Br1979   1.918   1_554  S
Br1627     C1978   1.918       .  S
Br1628     C1973   1.930       .  S
C1631      C1984   1.421       .  A
C1631      C1988   1.406       .  A
C1631     Br1638   1.927       .  S
C1632      C1983   1.421   1_554  A
C1632      C1633   1.427       .  A
C1633      C1634   1.408       .  A
C1633     Br1640   1.925       .  S
C1634      C1635   1.404       .  A
C1634     Br1639   1.932       .  S
C1635      C1636   1.406       .  A
C1636      C1983   1.406   1_554  A
C1636     Br1989   1.934   1_554  S
Br1637     C1988   1.934       .  S
C1641      C1642   1.421       .  A
C1641      C1646   1.415       .  A
C1641     Br1648   1.904       .  S
C1643      C1644   1.409       .  A
C1643     Br1650   1.919       .  S
C1644     Br1649   1.915       .  S
C1645      C1646   1.410       .  A
C1646     Br1647   1.934       .  S
C1651      C1652   1.412       .  A
C1651      C1656   1.407       .  A
C1651     Br1658   1.925       .  S
C1652      C1653   1.409       .  A
C1653      C1654   1.407       .  A
C1653     Br1660   1.921       .  S
C1654      C1655   1.407       .  A
C1654     Br1659   1.915       .  S
C1655      C1656   1.427       .  A
C1656     Br1657   1.929       .  S
C1661      C1662   1.435       .  A
C1661      C1666   1.409       .  A
C1661     Br1668   1.906       .  S
C1662      C1663   1.426       .  A
C1663      C1664   1.416       .  A
C1663     Br1670   1.932       .  S
C1664      C1665   1.403       .  A
C1664     Br1669   1.929       .  S
C1665      C1666   1.392       .  A
C1666     Br1667   1.938       .  S
C1671      C1672   1.398       .  A
C1671      C1676   1.415       .  A
C1671     Br1678   1.930       .  S
C1672      C1673   1.395       .  A
C1673      C1674   1.403       .  A
C1673     Br1680   1.940       .  S
C1674      C1675   1.438       .  A
C1674     Br1679   1.922       .  S
C1675      C1676   1.440       .  A
C1676     Br2381   1.928   1_545  S
Br1677     C2380   1.928       .  S
C1681      C1682   1.435       .  A
C1681      C1686   1.405       .  A
C1681     Br2392   1.911   1_545  S
C1682      C1683   1.426       .  A
C1683      C1684   1.415       .  A
C1683     Br1690   1.930       .  S
C1684      C1685   1.403       .  A
C1684     Br1689   1.930       .  S
C1685      C1686   1.393       .  A
C1686     Br1687   1.937       .  S
Br1688     C2385   1.911       .  S
C1691      C1692   1.404       .  A
C1691      C1696   1.404       .  A
C1691     Br1698   1.934       .  S
C1693      C1694   1.411       .  A
C1693     Br1700   1.926       .  S
C1694      C1695   1.423   1_455  A
C1694     Br1699   1.924       .  S
C1696     Br1697   1.910       .  S
C1701      C1702   1.425       .  A
C1701      C1706   1.416       .  A
C1701     Br2764   1.918   1_545  S
C1702      C1703   1.417       .  A
C1703      C1704   1.406       .  A
C1703     Br1710   1.932       .  S
C1704      C1705   1.406       .  A
C1704     Br1709   1.920       .  S
C1705      C1706   1.407       .  A
C1706     Br1707   1.935       .  S
Br1708     C2757   1.918       .  S
C1711      C1712   1.399       .  A
C1711      C1716   1.409       .  A
C1711     Br1718   1.915       .  S
C1712      C1713   1.403       .  A
C1713      C1714   1.414       .  A
C1713     Br1720   1.929       .  S
C1714      C1715   1.426       .  A
C1714     Br1719   1.920       .  S
C1715      C1716   1.428       .  A
C1716     Br2421   1.921       .  S
Br1717     C2420   1.921       .  S
C1721      C1722   1.424   1_655  A
C1721      C1726   1.412       .  A
C1721     Br1728   1.925   1_545  S
C1723      C1724   1.409       .  A
C1723     Br1730   1.909       .  S
C1724     Br1729   1.935       .  S
C1725      C1726   1.403   1_455  A
C1726     Br1727   1.928       .  S
C1731      C1732   1.405       .  A
C1731      C1736   1.408       .  A
C1731     Br1738   1.919   1_554  S
C1732      C1733   1.399       .  A
C1733      C1734   1.412       .  A
C1733     Br1740   1.930       .  S
C1734      C1735   1.427       .  A
C1734     Br2443   1.916       .  S
C1735      C1736   1.418       .  A
C1736     Br1737   1.931   1_554  S
Br1739     C2438   1.916   1_545  S
C1741      C1742   1.423   1_556  A
C1741      C1746   1.407   1_556  A
C1741     Br2100   1.925       .  S
C1742      C1743   1.430       .  A
C1743      C1744   1.410       .  A
C1743     Br1750   1.922       .  S
C1744      C1745   1.404       .  A
C1744     Br1749   1.935       .  S
C1745      C1746   1.404       .  A
C1746     Br2099   1.933   1_554  S
Br1747     C2098   1.933       .  S
Br1748     C2093   1.924       .  S
C1751      C1756   1.410       .  A
C1751     Br1758   1.935       .  S
C1752      C1753   1.405   1_455  A
C1753      C1754   1.412       .  A
C1753     Br1760   1.918       .  S
C1754      C1755   1.421   1_655  A
C1754     Br1759   1.921       .  S
C1756     Br1757   1.901       .  S
C1761      C1766   1.440   1_455  A
C1761      C2107   1.529       .  S
C1762      C2115   1.445       .  A
C1762      C2094   1.522       .  S
C1763      C2114   1.445   1_546  A
C1763      C1764   1.439       .  A
C1763      C2067   1.528       .  S
C1765      C2118   1.435   1_546  A
C1765      C2054   1.515       .  S
C1766      C2117   1.435       .  A
C1766      C2087   1.515       .  S
O1767      C1782   1.264       .  A
O1767     Al1775   1.933       .  S
C1768      C2044   1.476       .  S
C1768      O1778   1.261       .  A
O1769     Al1771   1.902       .  S
O1770      C1772   1.263       .  A
O1770     Al1771   1.921       .  S
Al1771     O1779   1.916       .  S
Al1771     O1781   1.876       .  S
C1772      C2017   1.477       .  S
C1772      O1785   1.259       .  A
O1773      C1783   1.266       .  A
O1774      C1787   1.261       .  A
O1774     Al1784   1.915       .  S
Al1775     O1785   1.896       .  S
O1776      C1783   1.259       .  A
O1776     Al1784   1.893       .  S
O1777     Al1784   1.906       .  S
O1778     Al1784   1.914       .  S
O1779      C1786   1.261   1_655  A
O1780     Al1784   1.786       .  S
O1781      C1782   1.254       .  A
C1782      C2024   1.471       .  S
C1783      C2004   1.480       .  S
C1786      C2077   1.480       .  S
C1787      C2037   1.473       .  S
C1787      O1788   1.258       .  A
C1789      C1790   1.434       .  A
C1789      C2047   1.520       .  S
C1790      C1967   1.531       .  S
C1791      C1792   1.441   1_655  A
C1791      C1984   1.514       .  S
C1793      C1974   1.518       .  S
C1794      C1957   1.508       .  S
O1795      C1810   1.260       .  A
C1796      C2104   1.485       .  S
C1796      O1806   1.257   1_455  A
O1797     Al1799   1.918       .  S
O1798      C1800   1.263       .  A
O1798     Al1799   1.907       .  S
Al1799     O1807   1.899       .  S
Al1799     O1809   1.918       .  S
C1800      C1944   1.473       .  S
C1800      O1813   1.260       .  A
O1801      C1811   1.258       .  A
O1801     Al1803   1.916       .  S
O1802      C1815   1.268       .  A
O1802     Al1812   1.923       .  S
Al1803     O1816   1.898       .  S
Al1803     O1808   1.811       .  S
O1804      C1811   1.258       .  A
O1804     Al1812   1.920       .  S
O1805     Al1812   1.927       .  S
O1806     Al1812   1.894       .  S
O1807      C1814   1.258       .  A
O1808     Al1812   1.795       .  S
O1809      C1810   1.263       .  A
C1810      C1917   1.503       .  S
C1811      C1934   1.489       .  S
C1814      C1997   1.495       .  S
C1815      C1924   1.481       .  S
C1815      O1816   1.262       .  A
C1817      C1818   1.451       .  A
C1817      C1822   1.450       .  A
C1817      C1907   1.542       .  S
C1818      C2523   1.431   1_545  A
C1818      C2034   1.535       .  S
C1819      C2522   1.431       .  A
C1819      C1820   1.431       .  A
C1819      C1947   1.495       .  S
C1820      C1821   1.441       .  A
C1820      C1897   1.548       .  S
C1821      C2526   1.448       .  A
C1821      C1937   1.502       .  S
C1822      C2525   1.448   1_545  A
C1822      C2027   1.542       .  S
O1823      C1838   1.252       .  A
O1823     Al1831   1.904       .  S
C1824      C1894   1.500       .  S
C1824      O1834   1.262       .  A
C1824      O1825   1.263       .  A
O1825     Al1827   1.917       .  S
O1826      C1828   1.272       .  A
O1826     Al1827   1.928       .  S
Al1827     O1835   1.911       .  S
Al1827     O1837   1.914       .  S
Al1827     O1836   1.783       .  S
C1828      C2097   1.482       .  S
C1828      O1841   1.265       .  A
O1829      C1839   1.252       .  A
O1829     Al1831   1.901       .  S
O1830      C1843   1.272       .  A
O1830     Al1840   1.928       .  S
Al1831     O1844   1.895       .  S
Al1831     O1841   1.898       .  S
Al1831     O1836   1.802       .  S
O1832      C1839   1.258       .  A
O1832     Al1840   1.913       .  S
O1833      C1842   1.261       .  A
O1833     Al1840   1.912       .  S
O1834     Al1840   1.921       .  S
O1835      C1842   1.260       .  A
O1836     Al1840   1.786       .  S
O1837      C1838   1.258       .  A
C1838      C1977   1.482       .  S
C1839      C2084   1.483       .  S
C1842      C1887   1.486       .  S
C1843      C1987   1.481       .  S
C1843      O1844   1.263       .  A
C1845      C1846   1.446       .  A
C1845      C1850   1.441       .  A
C1845      C1877   1.545       .  S
C1846      C1847   1.428       .  A
C1846      C2014   1.533       .  S
C1847      C1848   1.435       .  A
C1847      C1927   1.508       .  S
C1848      C1849   1.436       .  A
C1848      C1884   1.510       .  S
C1849      C1850   1.449       .  A
C1849      C1914   1.534       .  S
C1850      C2007   1.540       .  S
O1851      C1866   1.263       .  A
O1851     Al1859   1.922       .  S
C1852      C1874   1.501       .  S
C1852      O1862   1.263       .  A
C1852      O1853   1.258       .  A
O1853     Al1855   1.897       .  S
O1854      C1856   1.268       .  A
O1854     Al1855   1.931       .  S
Al1855     O1863   1.950       .  S
Al1855     O1865   1.904       .  S
Al1855     O1864   1.784       .  S
C1856      C1964   1.489       .  S
C1856      O1869   1.259       .  A
O1857      C1867   1.264       .  A
O1857     Al1859   1.921       .  S
O1858      C1871   1.267       .  A
O1858     Al1868   1.931       .  S
Al1859     O1872   1.909       .  S
Al1859     O1869   1.902       .  S
Al1859     O1864   1.795       .  S
O1860      C1867   1.257       .  A
O1860     Al1868   1.886       .  S
O1861      C1870   1.261       .  A
O1861     Al1868   1.874       .  S
O1862     Al1868   1.931       .  S
O1863      C1870   1.262       .  A
O1864     Al1868   1.780       .  S
O1865      C1866   1.261       .  A
C1866      C2057   1.486       .  S
C1867      C1954   1.478       .  S
C1870      C1904   1.498       .  S
C1871      C2064   1.493       .  S
C1871      O1872   1.260       .  A
C1873      C1874   1.419       .  A
C1873      C1878   1.397       .  A
C1873     Br1880   1.922       .  S
C1874      C1875   1.424       .  A
C1875      C1876   1.423       .  A
C1875     Br1882   1.935       .  S
C1876      C1877   1.431       .  A
C1876     Br1881   1.930       .  S
C1877      C1878   1.397       .  A
C1878     Br1879   1.913       .  S
C1883      C1884   1.418       .  A
C1883      C1888   1.415       .  A
C1883     Br1890   1.933       .  S
C1884      C1885   1.413       .  A
C1885      C1886   1.401       .  A
C1885     Br1892   1.901       .  S
C1886      C1887   1.399       .  A
C1886     Br1891   1.921       .  S
C1887      C1888   1.408       .  A
C1888     Br1889   1.909       .  S
C1893      C1894   1.403       .  A
C1893      C1898   1.408       .  A
C1893     Br1900   1.937       .  S
C1894      C1895   1.411       .  A
C1895      C1896   1.421       .  A
C1895     Br1902   1.915       .  S
C1896      C1897   1.423       .  A
C1896     Br2605   1.921       .  S
C1897      C1898   1.425       .  A
C1898     Br1899   1.898       .  S
Br1901     C2600   1.921   1_545  S
C1903      C1904   1.422       .  A
C1903      C1908   1.416       .  A
C1903     Br1910   1.923       .  S
C1904      C1905   1.420       .  A
C1905      C1906   1.400       .  A
C1905     Br1912   1.917       .  S
C1906      C1907   1.393       .  A
C1906     Br1911   1.916       .  S
C1907      C1908   1.411       .  A
C1908     Br1909   1.912   1_545  S
C1913      C1914   1.425       .  A
C1913      C1918   1.422       .  A
C1913     Br1920   1.929       .  S
C1914      C1915   1.431       .  A
C1915      C1916   1.406       .  A
C1915     Br1922   1.903       .  S
C1916      C1917   1.392       .  A
C1916     Br1921   1.926       .  S
C1917      C1918   1.410       .  A
C1918     Br1919   1.913       .  S
C1923      C1924   1.405       .  A
C1923      C1928   1.409       .  A
C1923     Br1930   1.932       .  S
C1924      C1925   1.408       .  A
C1925      C1926   1.410       .  A
C1925     Br1932   1.935       .  S
C1926      C1927   1.420       .  A
C1926     Br1931   1.942       .  S
C1927      C1928   1.417       .  A
C1928     Br1929   1.911       .  S
C1933      C1934   1.403       .  A
C1933      C1938   1.394       .  A
C1933     Br1940   1.904       .  S
C1934      C1935   1.412       .  A
C1935      C1936   1.422       .  A
C1935     Br1942   1.924       .  S
C1936      C1937   1.424       .  A
C1936     Br1941   1.929       .  S
C1937      C1938   1.408       .  A
C1938     Br1939   1.934       .  S
C1943      C1944   1.404       .  A
C1943      C1948   1.403       .  A
C1943     Br1950   1.926       .  S
C1944      C1945   1.406       .  A
C1945      C1946   1.406       .  A
C1945     Br1952   1.932       .  S
C1946      C1947   1.420       .  A
C1946     Br2655   1.921       .  S
C1947      C1948   1.417       .  A
C1948     Br1949   1.955       .  S
Br1951     C2650   1.921   1_545  S
C1953      C1954   1.404       .  A
C1953      C1958   1.404       .  A
C1953     Br1960   1.926       .  S
C1954      C1955   1.407       .  A
C1955      C1956   1.412       .  A
C1955     Br1962   1.935       .  S
C1956      C1957   1.423       .  A
C1956     Br1961   1.920       .  S
C1957      C1958   1.418       .  A
C1958     Br1959   1.931   1_556  S
C1963      C1964   1.402       .  A
C1963      C1968   1.412       .  A
C1963     Br1970   1.930   1_556  S
C1964      C1965   1.398       .  A
C1965      C1966   1.411       .  A
C1965     Br1972   1.928       .  S
C1966      C1967   1.432       .  A
C1966     Br1971   1.920       .  S
C1967      C1968   1.426       .  A
C1968     Br1969   1.921   1_556  S
C1973      C1974   1.419       .  A
C1973      C1978   1.408       .  A
C1974      C1975   1.430       .  A
C1975      C1976   1.411       .  A
C1975     Br1982   1.919       .  S
C1976      C1977   1.398       .  A
C1976     Br1981   1.928       .  S
C1977      C1978   1.403       .  A
C1983     Br1990   1.927       .  S
C1984      C1985   1.427       .  A
C1985      C1986   1.408       .  A
C1985     Br1992   1.925       .  S
C1986      C1987   1.404       .  A
C1986     Br1991   1.932       .  S
C1987      C1988   1.406       .  A
C1993      C1994   1.421       .  A
C1993      C1998   1.415       .  A
C1993     Br2000   1.904       .  S
C1995      C1996   1.409       .  A
C1995     Br2002   1.919       .  S
C1996     Br2001   1.915       .  S
C1997      C1998   1.410       .  A
C1998     Br1999   1.934       .  S
C2003      C2004   1.412       .  A
C2003      C2008   1.407       .  A
C2003     Br2010   1.925       .  S
C2004      C2005   1.409       .  A
C2005      C2006   1.407       .  A
C2005     Br2012   1.921       .  S
C2006      C2007   1.407       .  A
C2006     Br2011   1.915       .  S
C2007      C2008   1.427       .  A
C2008     Br2009   1.929       .  S
C2013      C2014   1.435       .  A
C2013      C2018   1.409       .  A
C2013     Br2020   1.906       .  S
C2014      C2015   1.426       .  A
C2015      C2016   1.416       .  A
C2015     Br2022   1.932       .  S
C2016      C2017   1.403       .  A
C2016     Br2021   1.929       .  S
C2017      C2018   1.392       .  A
C2018     Br2019   1.938       .  S
C2023      C2024   1.398       .  A
C2023      C2028   1.415       .  A
C2023     Br2030   1.930       .  S
C2024      C2025   1.395       .  A
C2025      C2026   1.403       .  A
C2025     Br2032   1.940       .  S
C2026      C2027   1.438       .  A
C2026     Br2031   1.922       .  S
C2027      C2028   1.440       .  A
C2028     Br2733   1.928   1_545  S
Br2029     C2732   1.928       .  S
C2033      C2034   1.435       .  A
C2033      C2038   1.405       .  A
C2033     Br2744   1.911   1_545  S
C2034      C2035   1.426       .  A
C2035      C2036   1.415       .  A
C2035     Br2042   1.930       .  S
C2036      C2037   1.403       .  A
C2036     Br2041   1.930       .  S
C2037      C2038   1.393       .  A
C2038     Br2039   1.937       .  S
Br2040     C2737   1.911       .  S
C2043      C2044   1.404       .  A
C2043      C2048   1.404       .  A
C2043     Br2050   1.934       .  S
C2045      C2046   1.411       .  A
C2045     Br2052   1.926       .  S
C2046      C2047   1.423   1_455  A
C2046     Br2051   1.924       .  S
C2048     Br2049   1.910       .  S
C2053      C2054   1.425       .  A
C2053      C2058   1.416       .  A
C2053     Br2412   1.918   1_545  S
C2054      C2055   1.417       .  A
C2055      C2056   1.406       .  A
C2055     Br2062   1.932   1_556  S
C2056      C2057   1.406       .  A
C2056     Br2061   1.920   1_556  S
C2057      C2058   1.407       .  A
C2058     Br2059   1.935       .  S
Br2060     C2405   1.918       .  S
C2063      C2064   1.399       .  A
C2063      C2068   1.409       .  A
C2063     Br2070   1.915       .  S
C2064      C2065   1.403       .  A
C2065      C2066   1.414   1_556  A
C2065     Br2072   1.929   1_556  S
C2066      C2067   1.426   1_554  A
C2066     Br2071   1.920       .  S
C2067      C2068   1.428       .  A
C2068     Br2773   1.921       .  S
Br2069     C2772   1.921       .  S
C2073      C2074   1.424   1_655  A
C2073      C2078   1.412       .  A
C2073     Br2080   1.925   1_545  S
C2075      C2076   1.409       .  A
C2075     Br2082   1.909       .  S
C2076     Br2081   1.935       .  S
C2077      C2078   1.403   1_455  A
C2078     Br2079   1.928       .  S
C2083      C2084   1.405       .  A
C2083      C2088   1.408       .  A
C2083     Br2090   1.919       .  S
C2084      C2085   1.399       .  A
C2085      C2086   1.412       .  A
C2085     Br2092   1.930       .  S
C2086      C2087   1.427       .  A
C2086     Br2795   1.916       .  S
C2087      C2088   1.418       .  A
C2088     Br2089   1.931       .  S
Br2091     C2790   1.916   1_545  S
C2093      C2094   1.423       .  A
C2093      C2098   1.407       .  A
C2094      C2095   1.430       .  A
C2095      C2096   1.410       .  A
C2095     Br2102   1.922       .  S
C2096      C2097   1.404       .  A
C2096     Br2101   1.935       .  S
C2097      C2098   1.404       .  A
C2103      C2108   1.410       .  A
C2103     Br2110   1.935       .  S
C2104      C2105   1.405   1_455  A
C2105      C2106   1.412       .  A
C2105     Br2112   1.918       .  S
C2106      C2107   1.421   1_655  A
C2106     Br2111   1.921       .  S
C2108     Br2109   1.901       .  S
C2113      C2118   1.440   1_455  A
C2113      C2459   1.530       .  S
C2114      C2446   1.521       .  S
C2115      C2116   1.439       .  A
C2115      C2419   1.528       .  S
C2117      C2406   1.515       .  S
C2118      C2439   1.516       .  S
O2119      C2134   1.264       .  A
O2119     Al2127   1.933       .  S
C2120      C2396   1.476       .  S
C2120      O2130   1.261       .  A
O2121     Al2123   1.902       .  S
O2122      C2124   1.263       .  A
O2122     Al2123   1.921       .  S
Al2123     O2131   1.916       .  S
Al2123     O2133   1.876       .  S
C2124      C2369   1.478       .  S
C2124      O2137   1.259       .  A
O2125      C2135   1.266       .  A
O2126      C2139   1.261       .  A
O2126     Al2136   1.915       .  S
Al2127     O2137   1.897       .  S
O2128      C2135   1.259       .  A
O2128     Al2136   1.893       .  S
O2129     Al2136   1.905       .  S
O2130     Al2136   1.914       .  S
O2131      C2138   1.261   1_655  A
O2132     Al2136   1.786       .  S
O2133      C2134   1.254       .  A
C2134      C2376   1.471       .  S
C2135      C2356   1.480       .  S
C2138      C2429   1.480       .  S
C2139      C2389   1.473       .  S
C2139      O2140   1.258       .  A
C2141      C2142   1.434       .  A
C2141      C2399   1.520       .  S
C2142      C2495   1.444       .  A
C2142      C2319   1.530       .  S
C2143      C2494   1.444   1_554  A
C2143      C2144   1.441   1_655  A
C2143      C2336   1.514       .  S
C2145      C2498   1.433   1_554  A
C2145      C2326   1.518       .  S
C2146      C2497   1.433       .  A
C2146      C2309   1.508       .  S
O2147      C2162   1.260       .  A
C2148      C2456   1.486       .  S
C2148      O2158   1.257   1_455  A
O2149     Al2151   1.918       .  S
O2150      C2152   1.263       .  A
O2150     Al2151   1.907       .  S
Al2151     O2159   1.899       .  S
Al2151     O2161   1.918       .  S
C2152      C2296   1.472       .  S
C2152      O2165   1.260       .  A
O2153      C2163   1.258       .  A
O2153     Al2155   1.916       .  S
O2154      C2167   1.268       .  A
O2154     Al2164   1.924       .  S
Al2155     O2168   1.898       .  S
Al2155     O2160   1.811       .  S
O2156      C2163   1.257       .  A
O2156     Al2164   1.918       .  S
O2157     Al2164   1.926       .  S
O2158     Al2164   1.894       .  S
O2159      C2166   1.258       .  A
O2160     Al2164   1.795       .  S
O2161      C2162   1.263       .  A
C2162      C2269   1.503       .  S
C2163      C2286   1.489       .  S
C2166      C2349   1.495       .  S
C2167      C2276   1.481       .  S
C2167      O2168   1.262       .  A
C2169      C2170   1.451       .  A
C2169      C2174   1.450       .  A
C2169      C2259   1.543       .  S
C2170      C2386   1.536       .  S
C2171      C2172   1.430       .  A
C2171      C2299   1.495       .  S
C2172      C2173   1.441       .  A
C2172      C2249   1.548       .  S
C2173      C2289   1.502       .  S
C2174      C2379   1.542       .  S
O2175      C2190   1.252       .  A
O2175     Al2183   1.904       .  S
C2176      C2246   1.500       .  S
C2176      O2186   1.262       .  A
C2176      O2177   1.263       .  A
O2177     Al2179   1.916       .  S
O2178      C2180   1.271       .  A
O2178     Al2179   1.928       .  S
Al2179     O2187   1.912       .  S
Al2179     O2189   1.914       .  S
Al2179     O2188   1.783       .  S
C2180      C2449   1.482       .  S
C2180      O2193   1.265       .  A
O2181      C2191   1.252       .  A
O2181     Al2183   1.901       .  S
O2182      C2195   1.272       .  A
O2182     Al2192   1.927       .  S
Al2183     O2196   1.895       .  S
Al2183     O2193   1.898       .  S
Al2183     O2188   1.802       .  S
O2184      C2191   1.258       .  A
O2184     Al2192   1.913       .  S
O2185      C2194   1.261       .  A
O2185     Al2192   1.913       .  S
O2186     Al2192   1.920       .  S
O2187      C2194   1.260       .  A
O2188     Al2192   1.786       .  S
O2189      C2190   1.258       .  A
C2190      C2329   1.482       .  S
C2191      C2436   1.483       .  S
C2194      C2239   1.487       .  S
C2195      C2339   1.481       .  S
C2195      O2196   1.263       .  A
C2197      C2198   1.446       .  A
C2197      C2202   1.441       .  A
C2197      C2229   1.545       .  S
C2198      C2199   1.428       .  A
C2198      C2366   1.534       .  S
C2199      C2200   1.436       .  A
C2199      C2279   1.508       .  S
C2200      C2201   1.437       .  A
C2200      C2236   1.511       .  S
C2201      C2202   1.449       .  A
C2201      C2266   1.534       .  S
C2202      C2359   1.540       .  S
O2203      C2218   1.263       .  A
O2203     Al2211   1.922       .  S
C2204      C2226   1.502       .  S
C2204      O2214   1.263       .  A
C2204      O2205   1.258       .  A
O2205     Al2207   1.898       .  S
O2206      C2208   1.268       .  A
O2206     Al2207   1.931       .  S
Al2207     O2215   1.949       .  S
Al2207     O2217   1.905       .  S
Al2207     O2216   1.784       .  S
C2208      C2316   1.489       .  S
C2208      O2221   1.259       .  A
O2209      C2219   1.264       .  A
O2209     Al2211   1.922       .  S
O2210      C2223   1.267       .  A
O2210     Al2220   1.931       .  S
Al2211     O2224   1.909       .  S
Al2211     O2221   1.902       .  S
Al2211     O2216   1.795       .  S
O2212      C2219   1.257       .  A
O2212     Al2220   1.886       .  S
O2213      C2222   1.260       .  A
O2213     Al2220   1.875       .  S
O2214     Al2220   1.931       .  S
O2215      C2222   1.263       .  A
O2216     Al2220   1.781       .  S
O2217      C2218   1.261       .  A
C2218      C2409   1.487       .  S
C2219      C2306   1.478       .  S
C2222      C2256   1.498       .  S
C2223      C2416   1.493       .  S
C2223      O2224   1.260       .  A
C2225      C2226   1.419       .  A
C2225      C2230   1.397       .  A
C2225     Br2232   1.922       .  S
C2226      C2227   1.424       .  A
C2227      C2228   1.423       .  A
C2227     Br2234   1.935       .  S
C2228      C2229   1.431       .  A
C2228     Br2233   1.930       .  S
C2229      C2230   1.397       .  A
C2230     Br2231   1.913       .  S
C2235      C2236   1.418       .  A
C2235      C2240   1.415       .  A
C2235     Br2242   1.933       .  S
C2236      C2237   1.413       .  A
C2237      C2238   1.402       .  A
C2237     Br2244   1.901       .  S
C2238      C2239   1.399       .  A
C2238     Br2243   1.922       .  S
C2239      C2240   1.408       .  A
C2240     Br2241   1.909       .  S
C2245      C2246   1.403       .  A
C2245      C2250   1.408       .  A
C2245     Br2252   1.936       .  S
C2246      C2247   1.411       .  A
C2247      C2248   1.421       .  A
C2247     Br2254   1.915       .  S
C2248      C2249   1.423       .  A
C2249      C2250   1.424       .  A
C2250     Br2251   1.898       .  S
C2255      C2256   1.421       .  A
C2255      C2260   1.415       .  A
C2255     Br2262   1.923       .  S
C2256      C2257   1.421       .  A
C2257      C2258   1.400       .  A
C2257     Br2264   1.917       .  S
C2258      C2259   1.393       .  A
C2258     Br2263   1.916       .  S
C2259      C2260   1.411       .  A
C2260     Br2261   1.912       .  S
C2265      C2266   1.425       .  A
C2265      C2270   1.421       .  A
C2265     Br2272   1.929       .  S
C2266      C2267   1.431       .  A
C2267      C2268   1.406       .  A
C2267     Br2274   1.903       .  S
C2268      C2269   1.393       .  A
C2268     Br2273   1.926       .  S
C2269      C2270   1.410       .  A
C2270     Br2271   1.913       .  S
C2275      C2276   1.405       .  A
C2275      C2280   1.409       .  A
C2275     Br2282   1.932       .  S
C2276      C2277   1.408       .  A
C2277      C2278   1.410       .  A
C2277     Br2284   1.935       .  S
C2278      C2279   1.420       .  A
C2278     Br2283   1.942       .  S
C2279      C2280   1.417       .  A
C2280     Br2281   1.911       .  S
C2285      C2286   1.403       .  A
C2285      C2290   1.394       .  A
C2285     Br2292   1.904       .  S
C2286      C2287   1.412       .  A
C2287      C2288   1.422       .  A
C2287     Br2294   1.924       .  S
C2288      C2289   1.424       .  A
C2288     Br2293   1.930   1_565  S
C2289      C2290   1.408       .  A
C2290     Br2291   1.934       .  S
C2295      C2296   1.404       .  A
C2295      C2300   1.403       .  A
C2295     Br2302   1.927       .  S
C2296      C2297   1.406       .  A
C2297      C2298   1.406       .  A
C2297     Br2304   1.932       .  S
C2298      C2299   1.420       .  A
C2299      C2300   1.417       .  A
C2300     Br2301   1.955       .  S
C2305      C2306   1.404       .  A
C2305      C2310   1.404       .  A
C2305     Br2312   1.926       .  S
C2306      C2307   1.407       .  A
C2307      C2308   1.412       .  A
C2307     Br2314   1.935       .  S
C2308      C2309   1.423       .  A
C2308     Br2313   1.920       .  S
C2309      C2310   1.418       .  A
C2310     Br2311   1.931       .  S
C2315      C2316   1.402       .  A
C2315      C2320   1.412       .  A
C2315     Br2322   1.930       .  S
C2316      C2317   1.398       .  A
C2317      C2318   1.411       .  A
C2317     Br2324   1.928       .  S
C2318      C2319   1.432       .  A
C2318     Br2323   1.920       .  S
C2319      C2320   1.425       .  A
C2320     Br2321   1.921       .  S
C2325      C2326   1.419   1_556  A
C2325      C2330   1.408   1_556  A
C2325     Br2684   1.930       .  S
C2326      C2327   1.430       .  A
C2327      C2328   1.411       .  A
C2327     Br2334   1.919       .  S
C2328      C2329   1.398       .  A
C2328     Br2333   1.928       .  S
C2329      C2330   1.403       .  A
C2330     Br2683   1.918   1_554  S
Br2331     C2682   1.918       .  S
Br2332     C2677   1.930       .  S
C2335      C2688   1.421       .  A
C2335      C2692   1.406       .  A
C2335     Br2342   1.927       .  S
C2336      C2687   1.421   1_554  A
C2336      C2337   1.427       .  A
C2337      C2338   1.408       .  A
C2337     Br2344   1.925       .  S
C2338      C2339   1.404       .  A
C2338     Br2343   1.933       .  S
C2339      C2340   1.406       .  A
C2340      C2687   1.406   1_554  A
C2340     Br2693   1.934   1_554  S
Br2341     C2692   1.934       .  S
C2345      C2346   1.421       .  A
C2345      C2350   1.414       .  A
C2345     Br2352   1.903       .  S
C2347      C2348   1.409       .  A
C2347     Br2354   1.919       .  S
C2348     Br2353   1.914       .  S
C2349      C2350   1.410       .  A
C2350     Br2351   1.934       .  S
C2355      C2356   1.412       .  A
C2355      C2360   1.408       .  A
C2355     Br2362   1.926       .  S
C2356      C2357   1.409       .  A
C2357      C2358   1.407       .  A
C2357     Br2364   1.921       .  S
C2358      C2359   1.407       .  A
C2358     Br2363   1.915       .  S
C2359      C2360   1.428       .  A
C2360     Br2361   1.929       .  S
C2365      C2366   1.435       .  A
C2365      C2370   1.409       .  A
C2365     Br2372   1.905       .  S
C2366      C2367   1.427       .  A
C2367      C2368   1.416       .  A
C2367     Br2374   1.932       .  S
C2368      C2369   1.403       .  A
C2368     Br2373   1.929       .  S
C2369      C2370   1.392       .  A
C2370     Br2371   1.938       .  S
C2375      C2376   1.398       .  A
C2375      C2380   1.415       .  A
C2375     Br2382   1.930       .  S
C2376      C2377   1.395       .  A
C2377      C2378   1.403       .  A
C2377     Br2384   1.940       .  S
C2378      C2379   1.438       .  A
C2378     Br2383   1.922       .  S
C2379      C2380   1.440       .  A
C2385      C2386   1.436       .  A
C2385      C2390   1.406       .  A
C2386      C2387   1.426       .  A
C2387      C2388   1.415       .  A
C2387     Br2394   1.930       .  S
C2388      C2389   1.403       .  A
C2388     Br2393   1.930       .  S
C2389      C2390   1.393       .  A
C2390     Br2391   1.937       .  S
C2395      C2396   1.404       .  A
C2395      C2400   1.404       .  A
C2395     Br2402   1.934       .  S
C2397      C2398   1.411       .  A
C2397     Br2404   1.926       .  S
C2398      C2399   1.423   1_455  A
C2398     Br2403   1.924       .  S
C2400     Br2401   1.910       .  S
C2405      C2406   1.425       .  A
C2405      C2410   1.416       .  A
C2406      C2407   1.417       .  A
C2407      C2408   1.406       .  A
C2407     Br2414   1.932       .  S
C2408      C2409   1.406       .  A
C2408     Br2413   1.920       .  S
C2409      C2410   1.407       .  A
C2410     Br2411   1.935       .  S
C2415      C2416   1.399       .  A
C2415      C2420   1.409       .  A
C2415     Br2422   1.915       .  S
C2416      C2417   1.403       .  A
C2417      C2418   1.414       .  A
C2417     Br2424   1.929       .  S
C2418      C2419   1.426       .  A
C2418     Br2423   1.920       .  S
C2419      C2420   1.428       .  A
C2425      C2426   1.424   1_655  A
C2425      C2430   1.412       .  A
C2425     Br2432   1.925       .  S
C2427      C2428   1.409       .  A
C2427     Br2434   1.909       .  S
C2428     Br2433   1.935       .  S
C2429      C2430   1.403   1_455  A
C2430     Br2431   1.928       .  S
C2435      C2436   1.405       .  A
C2435      C2440   1.408       .  A
C2435     Br2442   1.920   1_554  S
C2436      C2437   1.399       .  A
C2437      C2438   1.412       .  A
C2437     Br2444   1.930       .  S
C2438      C2439   1.427       .  A
C2439      C2440   1.418       .  A
C2440     Br2441   1.931   1_554  S
C2445      C2446   1.423   1_556  A
C2445      C2450   1.407   1_556  A
C2445     Br2804   1.925       .  S
C2446      C2447   1.430       .  A
C2447      C2448   1.410       .  A
C2447     Br2454   1.923       .  S
C2448      C2449   1.403       .  A
C2448     Br2453   1.935       .  S
C2449      C2450   1.404       .  A
C2450     Br2803   1.933   1_554  S
Br2451     C2802   1.933       .  S
Br2452     C2797   1.925       .  S
C2455      C2460   1.410       .  A
C2455     Br2462   1.935       .  S
C2456      C2457   1.405   1_455  A
C2457      C2458   1.412       .  A
C2457     Br2464   1.918       .  S
C2458      C2459   1.421   1_655  A
C2458     Br2463   1.921   1_565  S
C2460     Br2461   1.901       .  S
C2465      C2470   1.440   1_455  A
C2465      C2811   1.530       .  S
C2466      C2798   1.521       .  S
C2467      C2468   1.439       .  A
C2467      C2771   1.528       .  S
C2469      C2758   1.515       .  S
C2470      C2791   1.516       .  S
O2471      C2486   1.264       .  A
O2471     Al2479   1.933       .  S
C2472      C2748   1.476       .  S
C2472      O2482   1.261       .  A
O2473     Al2475   1.902       .  S
O2474      C2476   1.263       .  A
O2474     Al2475   1.921       .  S
Al2475     O2483   1.916       .  S
Al2475     O2485   1.876       .  S
C2476      C2721   1.478       .  S
C2476      O2489   1.259       .  A
O2477      C2487   1.266       .  A
O2478      C2491   1.261       .  A
O2478     Al2488   1.915       .  S
Al2479     O2489   1.897       .  S
O2480      C2487   1.259       .  A
O2480     Al2488   1.893       .  S
O2481     Al2488   1.905       .  S
O2482     Al2488   1.914       .  S
O2483      C2490   1.261   1_655  A
O2484     Al2488   1.786       .  S
O2485      C2486   1.254       .  A
C2486      C2728   1.471       .  S
C2487      C2708   1.480       .  S
C2490      C2781   1.480       .  S
C2491      C2741   1.473       .  S
C2491      O2492   1.258       .  A
C2493      C2494   1.434       .  A
C2493      C2751   1.520       .  S
C2494      C2671   1.530       .  S
C2495      C2496   1.441   1_655  A
C2495      C2688   1.514       .  S
C2497      C2678   1.518       .  S
C2498      C2661   1.508       .  S
O2499      C2514   1.260       .  A
C2500      C2808   1.486       .  S
C2500      O2510   1.257   1_455  A
O2501     Al2503   1.918       .  S
O2502      C2504   1.263       .  A
O2502     Al2503   1.907       .  S
Al2503     O2511   1.899       .  S
Al2503     O2513   1.918       .  S
C2504      C2648   1.472       .  S
C2504      O2517   1.260       .  A
O2505      C2515   1.258       .  A
O2505     Al2507   1.916       .  S
O2506      C2519   1.268       .  A
O2506     Al2516   1.924       .  S
Al2507     O2520   1.898       .  S
Al2507     O2512   1.811       .  S
O2508      C2515   1.257       .  A
O2508     Al2516   1.918       .  S
O2509     Al2516   1.926       .  S
O2510     Al2516   1.894       .  S
O2511      C2518   1.258       .  A
O2512     Al2516   1.795       .  S
O2513      C2514   1.263       .  A
C2514      C2621   1.503       .  S
C2515      C2638   1.489       .  S
C2518      C2701   1.495       .  S
C2519      C2628   1.481       .  S
C2519      O2520   1.262       .  A
C2521      C2522   1.451       .  A
C2521      C2526   1.450       .  A
C2521      C2611   1.543       .  S
C2522      C2738   1.536       .  S
C2523      C2524   1.430       .  A
C2523      C2651   1.495       .  S
C2524      C2525   1.441       .  A
C2524      C2601   1.548       .  S
C2525      C2641   1.502       .  S
C2526      C2731   1.542       .  S
O2527      C2542   1.252       .  A
O2527     Al2535   1.904       .  S
C2528      C2598   1.500       .  S
C2528      O2538   1.262       .  A
C2528      O2529   1.263       .  A
O2529     Al2531   1.916       .  S
O2530      C2532   1.271       .  A
O2530     Al2531   1.928       .  S
Al2531     O2539   1.912       .  S
Al2531     O2541   1.914       .  S
Al2531     O2540   1.783       .  S
C2532      C2801   1.482       .  S
C2532      O2545   1.265       .  A
O2533      C2543   1.252       .  A
O2533     Al2535   1.901       .  S
O2534      C2547   1.272       .  A
O2534     Al2544   1.927       .  S
Al2535     O2548   1.895       .  S
Al2535     O2545   1.898       .  S
Al2535     O2540   1.802       .  S
O2536      C2543   1.258       .  A
O2536     Al2544   1.913       .  S
O2537      C2546   1.261       .  A
O2537     Al2544   1.913       .  S
O2538     Al2544   1.920       .  S
O2539      C2546   1.260       .  A
O2540     Al2544   1.786       .  S
O2541      C2542   1.258       .  A
C2542      C2681   1.482       .  S
C2543      C2788   1.483       .  S
C2546      C2591   1.487       .  S
C2547      C2691   1.481       .  S
C2547      O2548   1.263       .  A
C2549      C2550   1.446       .  A
C2549      C2554   1.441       .  A
C2549      C2581   1.545       .  S
C2550      C2551   1.428       .  A
C2550      C2718   1.534       .  S
C2551      C2552   1.436       .  A
C2551      C2631   1.508       .  S
C2552      C2553   1.437       .  A
C2552      C2588   1.511       .  S
C2553      C2554   1.449       .  A
C2553      C2618   1.534       .  S
C2554      C2711   1.540       .  S
O2555      C2570   1.263       .  A
O2555     Al2563   1.922       .  S
C2556      C2578   1.502       .  S
C2556      O2566   1.263       .  A
C2556      O2557   1.258       .  A
O2557     Al2559   1.898       .  S
O2558      C2560   1.268       .  A
O2558     Al2559   1.931       .  S
Al2559     O2567   1.949       .  S
Al2559     O2569   1.905       .  S
Al2559     O2568   1.784       .  S
C2560      C2668   1.489       .  S
C2560      O2573   1.259       .  A
O2561      C2571   1.264       .  A
O2561     Al2563   1.922       .  S
O2562      C2575   1.267       .  A
O2562     Al2572   1.931       .  S
Al2563     O2576   1.909       .  S
Al2563     O2573   1.902       .  S
Al2563     O2568   1.795       .  S
O2564      C2571   1.257       .  A
O2564     Al2572   1.886       .  S
O2565      C2574   1.260       .  A
O2565     Al2572   1.875       .  S
O2566     Al2572   1.931       .  S
O2567      C2574   1.263       .  A
O2568     Al2572   1.781       .  S
O2569      C2570   1.261       .  A
C2570      C2761   1.487       .  S
C2571      C2658   1.478       .  S
C2574      C2608   1.498       .  S
C2575      C2768   1.493       .  S
C2575      O2576   1.260       .  A
C2577      C2578   1.419       .  A
C2577      C2582   1.397       .  A
C2577     Br2584   1.922       .  S
C2578      C2579   1.424       .  A
C2579      C2580   1.423       .  A
C2579     Br2586   1.935       .  S
C2580      C2581   1.431       .  A
C2580     Br2585   1.930       .  S
C2581      C2582   1.397       .  A
C2582     Br2583   1.913       .  S
C2587      C2588   1.418       .  A
C2587      C2592   1.415       .  A
C2587     Br2594   1.933       .  S
C2588      C2589   1.413       .  A
C2589      C2590   1.402       .  A
C2589     Br2596   1.901       .  S
C2590      C2591   1.399       .  A
C2590     Br2595   1.922       .  S
C2591      C2592   1.408       .  A
C2592     Br2593   1.909       .  S
C2597      C2598   1.403       .  A
C2597      C2602   1.408       .  A
C2597     Br2604   1.936       .  S
C2598      C2599   1.411       .  A
C2599      C2600   1.421       .  A
C2599     Br2606   1.915       .  S
C2600      C2601   1.423       .  A
C2601      C2602   1.424       .  A
C2602     Br2603   1.898       .  S
C2607      C2608   1.421       .  A
C2607      C2612   1.415       .  A
C2607     Br2614   1.923       .  S
C2608      C2609   1.421       .  A
C2609      C2610   1.400       .  A
C2609     Br2616   1.917       .  S
C2610      C2611   1.393       .  A
C2610     Br2615   1.916       .  S
C2611      C2612   1.411       .  A
C2612     Br2613   1.912       .  S
C2617      C2618   1.425       .  A
C2617      C2622   1.421       .  A
C2617     Br2624   1.929       .  S
C2618      C2619   1.431       .  A
C2619      C2620   1.406       .  A
C2619     Br2626   1.903       .  S
C2620      C2621   1.393       .  A
C2620     Br2625   1.926       .  S
C2621      C2622   1.410       .  A
C2622     Br2623   1.913       .  S
C2627      C2628   1.405       .  A
C2627      C2632   1.409       .  A
C2627     Br2634   1.932       .  S
C2628      C2629   1.408       .  A
C2629      C2630   1.410       .  A
C2629     Br2636   1.935       .  S
C2630      C2631   1.420       .  A
C2630     Br2635   1.942       .  S
C2631      C2632   1.417       .  A
C2632     Br2633   1.911       .  S
C2637      C2638   1.403       .  A
C2637      C2642   1.394       .  A
C2637     Br2644   1.904       .  S
C2638      C2639   1.412       .  A
C2639      C2640   1.422       .  A
C2639     Br2646   1.924       .  S
C2640      C2641   1.424       .  A
C2640     Br2645   1.930   1_565  S
C2641      C2642   1.408       .  A
C2642     Br2643   1.934       .  S
C2647      C2648   1.404       .  A
C2647      C2652   1.403       .  A
C2647     Br2654   1.927       .  S
C2648      C2649   1.406       .  A
C2649      C2650   1.406       .  A
C2649     Br2656   1.932       .  S
C2650      C2651   1.419       .  A
C2651      C2652   1.417       .  A
C2652     Br2653   1.955       .  S
C2657      C2658   1.404       .  A
C2657      C2662   1.404       .  A
C2657     Br2664   1.926       .  S
C2658      C2659   1.407       .  A
C2659      C2660   1.412       .  A
C2659     Br2666   1.935       .  S
C2660      C2661   1.423       .  A
C2660     Br2665   1.920       .  S
C2661      C2662   1.418       .  A
C2662     Br2663   1.931   1_556  S
C2667      C2668   1.402       .  A
C2667      C2672   1.412       .  A
C2667     Br2674   1.930   1_556  S
C2668      C2669   1.398       .  A
C2669      C2670   1.411       .  A
C2669     Br2676   1.928       .  S
C2670      C2671   1.432       .  A
C2670     Br2675   1.920       .  S
C2671      C2672   1.425       .  A
C2672     Br2673   1.921   1_556  S
C2677      C2678   1.419       .  A
C2677      C2682   1.408       .  A
C2678      C2679   1.430       .  A
C2679      C2680   1.411       .  A
C2679     Br2686   1.919       .  S
C2680      C2681   1.398       .  A
C2680     Br2685   1.928       .  S
C2681      C2682   1.403       .  A
C2687     Br2694   1.927       .  S
C2688      C2689   1.427       .  A
C2689      C2690   1.408       .  A
C2689     Br2696   1.925       .  S
C2690      C2691   1.404       .  A
C2690     Br2695   1.933       .  S
C2691      C2692   1.406       .  A
C2697      C2698   1.421       .  A
C2697      C2702   1.414       .  A
C2697     Br2704   1.903       .  S
C2699      C2700   1.409       .  A
C2699     Br2706   1.919       .  S
C2700     Br2705   1.914       .  S
C2701      C2702   1.410       .  A
C2702     Br2703   1.934       .  S
C2707      C2708   1.412       .  A
C2707      C2712   1.408       .  A
C2707     Br2714   1.926       .  S
C2708      C2709   1.409       .  A
C2709      C2710   1.407       .  A
C2709     Br2716   1.921       .  S
C2710      C2711   1.407       .  A
C2710     Br2715   1.915       .  S
C2711      C2712   1.428       .  A
C2712     Br2713   1.929       .  S
C2717      C2718   1.435       .  A
C2717      C2722   1.409       .  A
C2717     Br2724   1.905       .  S
C2718      C2719   1.427       .  A
C2719      C2720   1.416       .  A
C2719     Br2726   1.932       .  S
C2720      C2721   1.403       .  A
C2720     Br2725   1.929       .  S
C2721      C2722   1.392       .  A
C2722     Br2723   1.938       .  S
C2727      C2728   1.398       .  A
C2727      C2732   1.415       .  A
C2727     Br2734   1.930       .  S
C2728      C2729   1.395       .  A
C2729      C2730   1.403       .  A
C2729     Br2736   1.940       .  S
C2730      C2731   1.438       .  A
C2730     Br2735   1.922       .  S
C2731      C2732   1.440       .  A
C2737      C2738   1.436       .  A
C2737      C2742   1.406       .  A
C2738      C2739   1.426       .  A
C2739      C2740   1.415       .  A
C2739     Br2746   1.930       .  S
C2740      C2741   1.403       .  A
C2740     Br2745   1.930       .  S
C2741      C2742   1.393       .  A
C2742     Br2743   1.937       .  S
C2747      C2748   1.404       .  A
C2747      C2752   1.404       .  A
C2747     Br2754   1.934       .  S
C2749      C2750   1.411       .  A
C2749     Br2756   1.926       .  S
C2750      C2751   1.423   1_455  A
C2750     Br2755   1.924       .  S
C2752     Br2753   1.910       .  S
C2757      C2758   1.425       .  A
C2757      C2762   1.416       .  A
C2758      C2759   1.417       .  A
C2759      C2760   1.406       .  A
C2759     Br2766   1.932   1_556  S
C2760      C2761   1.406       .  A
C2760     Br2765   1.920   1_556  S
C2761      C2762   1.407       .  A
C2762     Br2763   1.935       .  S
C2767      C2768   1.399       .  A
C2767      C2772   1.409       .  A
C2767     Br2774   1.915       .  S
C2768      C2769   1.403       .  A
C2769      C2770   1.414   1_556  A
C2769     Br2776   1.929   1_556  S
C2770      C2771   1.426   1_554  A
C2770     Br2775   1.920       .  S
C2771      C2772   1.428       .  A
C2777      C2778   1.424   1_655  A
C2777      C2782   1.412       .  A
C2777     Br2784   1.925       .  S
C2779      C2780   1.409       .  A
C2779     Br2786   1.909       .  S
C2780     Br2785   1.935       .  S
C2781      C2782   1.403   1_455  A
C2782     Br2783   1.928       .  S
C2787      C2788   1.405       .  A
C2787      C2792   1.408       .  A
C2787     Br2794   1.920       .  S
C2788      C2789   1.399       .  A
C2789      C2790   1.412       .  A
C2789     Br2796   1.930       .  S
C2790      C2791   1.427       .  A
C2791      C2792   1.418       .  A
C2792     Br2793   1.931       .  S
C2797      C2798   1.423       .  A
C2797      C2802   1.407       .  A
C2798      C2799   1.430       .  A
C2799      C2800   1.410       .  A
C2799     Br2806   1.923       .  S
C2800      C2801   1.403       .  A
C2800     Br2805   1.935       .  S
C2801      C2802   1.404       .  A
C2807      C2812   1.410       .  A
C2807     Br2814   1.935       .  S
C2808      C2809   1.405   1_455  A
C2809      C2810   1.412       .  A
C2809     Br2816   1.918       .  S
C2810      C2811   1.421   1_655  A
C2810     Br2815   1.921   1_565  S
C2812     Br2813   1.901       .  S
