geometry optimzed in LAMMPS
_audit_creation_date              2020-11-30 
_audit_creation_method            'lammps2cif' 
_symmetry_space_group_name_H-M    'P1' 
_symmetry_Int_Tables_number       1 
_symmetry_cell_setting            triclinic 
loop_ 
_symmetry_equiv_pos_as_xyz 
  x,y,z 
_cell_length_a                    39.89119653 
_cell_length_b                    39.889893185975524 
_cell_length_c                    36.225607591632325 
_cell_angle_alpha                 90.0296279969786 
_cell_angle_beta                  89.98411602558599 
_cell_angle_gamma                 120.01900927126609 
loop_ 
_atom_site_label 
_atom_site_type_symbol 
_atom_site_fract_x 
_atom_site_fract_y 
_atom_site_fract_z 
_atom_site_charge 
O1          O  0.46537137  0.07315925  0.31374450    -0.74600
O2          O  0.48051428  0.04338886  0.35953265    -0.53500
C3          C  0.46861512  0.06649780  0.34777513     0.79100
O4          O  0.39363000  0.92033787  0.19322830    -0.59200
O5          O  0.43779267  0.95362506  0.14775166    -0.52300
C6          C  0.40362254  0.92817653  0.15926173     0.71100
O7          O  0.39240586  0.92323863  0.31442417    -0.73800
O8          O  0.43687739  0.95560646  0.36001416    -0.54400
C9          C  0.40219972  0.93130580  0.34836734     0.77100
O10         O  0.46886600  0.07542474  0.19355032    -0.58900
O11         O  0.48008418  0.04223659  0.14819319    -0.52100
C12         C  0.47060304  0.06723720  0.15964379     0.73700
Zr13       Zr  0.47758914  0.05488446  0.25379841     2.54700
O14         O  0.41480286  0.05110457  0.25213639    -0.79500
O15         O  0.51710762  0.12525584  0.25392940    -0.92900
Zr16       Zr  0.42200984  0.94117911  0.25407852     2.64700
O17         O  0.36058229  0.94041805  0.25362044    -0.97900
O18         O  0.39395965  0.87115275  0.25546562    -0.79900
O19         O  0.44974436  0.99818913  0.29045033    -0.83300
O20         O  0.44890249  0.99790929  0.21747678    -2.18000
O21         O  0.60383408  0.07756763  0.19240610    -0.66700
O22         O  0.55916070  0.04369395  0.14743597    -0.51300
C23         C  0.59344988  0.06937316  0.15854536     0.72100
O24         O  0.53155018  0.92412174  0.31413358    -0.59600
O25         O  0.51800495  0.95528217  0.35983213    -0.51600
C26         C  0.52910005  0.93152175  0.34810713     0.73900
O27         O  0.52958618  0.92240558  0.19402437    -0.71000
O28         O  0.51520885  0.95344345  0.14888229    -0.49700
C29         C  0.52588368  0.92935500  0.16018122     0.75300
O30         O  0.60633476  0.07550245  0.31315513    -0.66300
O31         O  0.56223347  0.04323596  0.35904295    -0.53500
C32         C  0.59681056  0.06758591  0.34716332     0.73700
Zr33       Zr  0.57586139  0.05631453  0.25335352     2.77500
O34         O  0.63558384  0.05371534  0.25346504    -0.97100
O35         O  0.60561993  0.12650979  0.25556647    -0.77900
Zr36       Zr  0.52012467  0.94268029  0.25410484     2.70100
O37         O  0.58162534  0.94361679  0.25395813    -0.79100
O38         O  0.47865668  0.87254543  0.25510509    -0.98200
Zr39       Zr  0.49925679  0.99922723  0.32848157     2.21500
Zr40       Zr  0.49853432  0.99858454  0.17987750     2.11100
O41         O  0.54849414  0.99930485  0.21711209    -2.46900
O42         O  0.54840301  0.99975936  0.29027114    -0.78900
O43         O  0.52692856  0.05628517  0.21638692    -0.71100
O44         O  0.47083204  0.94142390  0.29160109    -2.32100
O45         O  0.52729219  0.05652491  0.29098906    -2.28300
O46         O  0.47065215  0.94110821  0.21679237    -0.72900
H47         H  0.42883768  0.99758762  0.20231097     0.79100
H48         H  0.45966450  0.91865682  0.30708348     0.80200
H49         H  0.56837544  0.99949141  0.20175034     0.82400
H50         H  0.53860423  0.07941639  0.30632805     0.80000
H51         H  0.36641044  0.86102476  0.26186409     0.43100
H52         H  0.46647479  0.86578231  0.23037259     0.42000
H53         H  0.59909676  0.96650363  0.26903402     0.41700
H54         H  0.63386095  0.03817178  0.23148616     0.39600
H55         H  0.59312627  0.13291204  0.23530133     0.42800
H56         H  0.52936332  0.13203470  0.27862230     0.37600
H57         H  0.39746327  0.02730748  0.26614482     0.43700
H58         H  0.36182794  0.95587849  0.23175149     0.40100
H59         H  0.65611441  0.08038641  0.24733135     0.45000
H60         H  0.49816307  0.13440423  0.25429598     0.43700
H61         H  0.34105676  0.91345833  0.24711161     0.43900
H62         H  0.49685590  0.86247184  0.25518183     0.44200
O63         O  0.07332723  0.60625028  0.31240571    -0.74600
O64         O  0.04212896  0.56206755  0.35847651    -0.53500
C65         C  0.06558725  0.59685811  0.34640862     0.79100
O66         O  0.92270032  0.52946386  0.19231319    -0.59200
O67         O  0.95563433  0.51777469  0.14703380    -0.52300
C68         C  0.93084577  0.52759498  0.15839283     0.71100
O69         O  0.92263829  0.52972145  0.31244681    -0.73800
O70         O  0.95378505  0.51618743  0.35816921    -0.54400
C71         C  0.92963723  0.52680133  0.34645548     0.77100
O72         O  0.07769963  0.60434080  0.19184992    -0.58900
O73         O  0.04555676  0.55926242  0.14667331    -0.52100
C74         C  0.07067047  0.59371181  0.15794993     0.73700
Zr75       Zr  0.05633616  0.57588516  0.25253436     2.54700
O76         O  0.05540270  0.63637212  0.25048025    -0.79500
O77         O  0.12647319  0.60547771  0.25627476    -0.92900
Zr78       Zr  0.94287070  0.51978764  0.25255337     2.64700
O79         O  0.94725078  0.58298415  0.25314148    -0.97900
O80         O  0.87262754  0.47963683  0.25235212    -0.79900
O81         O  0.99957870  0.54800932  0.28924713    -0.83300
O82         O  0.99962701  0.54841505  0.21593112    -2.18000
O83         O  0.07786220  0.47246366  0.19162480    -0.66700
O84         O  0.04283200  0.48122152  0.14639949    -0.51300
C85         C  0.06898026  0.47340891  0.15774637     0.72100
O86         O  0.92507131  0.39140881  0.31251763    -0.59600
O87         O  0.95613296  0.43576706  0.35847894    -0.51600
C88         C  0.93268853  0.40091347  0.34653959     0.73900
O89         O  0.91872332  0.39345473  0.19276123    -0.71000
O90         O  0.95266616  0.43726555  0.14726083    -0.49700
C91         C  0.92638404  0.40336842  0.15882316     0.75300
O92         O  0.07347595  0.46562504  0.31312443    -0.66300
O93         O  0.04346572  0.48053227  0.35893245    -0.53500
C94         C  0.06669590  0.46874521  0.34720140     0.73700
Zr95       Zr  0.05642058  0.47861154  0.25270885     2.77500
O96         O  0.05736127  0.41802414  0.25005182    -0.97100
O97         O  0.12636581  0.52022578  0.25754784    -0.77900
Zr98       Zr  0.94296254  0.42189800  0.25268547     2.70100
O99         O  0.94985133  0.36474777  0.24865152    -0.79100
O100        O  0.87262532  0.38647105  0.25708113    -0.98200
Zr101      Zr  0.99922512  0.49888124  0.32742938     2.21500
Zr102      Zr  0.99902364  0.49870970  0.17850428     2.11100
O103        O  0.99953555  0.44944575  0.21592741    -2.46900
O104        O  0.99959856  0.45001052  0.28934862    -0.78900
O105        O  0.05680067  0.52742140  0.21525307    -0.71100
O106        O  0.94195436  0.47037088  0.28981317    -2.32100
O107        O  0.05687887  0.52758748  0.29020064    -2.28300
O108        O  0.94172488  0.47022098  0.21560081    -0.72900
H109        H  0.00000985  0.56843593  0.20065520     0.79100
H110        H  0.91899363  0.45877192  0.30504389     0.80200
H111        H  0.99933942  0.42952513  0.20060136     0.82400
H112        H  0.07967842  0.53906654  0.30565619     0.80000
H113        H  0.86315263  0.49825676  0.25430902     0.43100
H114        H  0.86391125  0.39816524  0.23797251     0.42000
H115        H  0.97652523  0.37361978  0.25731671     0.41700
H116        H  0.04373638  0.40528090  0.22690369     0.39600
H117        H  0.13430903  0.53437159  0.23380646     0.42800
H118        H  0.13613275  0.63368083  0.25658718     0.37600
H119        H  0.03183749  0.63091773  0.26439416     0.43700
H120        H  0.96214569  0.59637068  0.23072550     0.40100
H121        H  0.08478383  0.42590464  0.24532966     0.45000
H122        H  0.13440811  0.60062146  0.23187343     0.43700
H123        H  0.92059918  0.57749772  0.24798284     0.43900
H124        H  0.86475897  0.36027523  0.24756536     0.44200
O125        O  0.39041955  0.46571696  0.31352443    -0.74600
O126        O  0.43494646  0.47995512  0.35955088    -0.53500
C127        C  0.39989271  0.46745374  0.34759307     0.79100
O128        O  0.46743938  0.39213465  0.19351392    -0.59200
O129        O  0.47982656  0.43652909  0.14784047    -0.52300
C130        C  0.47013833  0.40201395  0.15945220     0.71100
O131        O  0.46289359  0.39128060  0.31405616    -0.73800
O132        O  0.47843823  0.43652686  0.35968840    -0.54400
C133        C  0.46612618  0.40133346  0.34805167     0.77100
O134        O  0.39308373  0.47492703  0.19273817    -0.58900
O135        O  0.43673033  0.48341737  0.14744875    -0.52100
C136        C  0.40278889  0.47595874  0.15876967     0.73700
Zr137      Zr  0.42154410  0.48191409  0.25356987     2.54700
O138        O  0.35843696  0.42326561  0.25067823    -0.79500
O139        O  0.39611913  0.52611383  0.25615431    -0.92900
Zr140      Zr  0.47430244  0.42127632  0.25392645     2.64700
O141        O  0.40896298  0.36543102  0.25388687    -0.97900
O142        O  0.50900117  0.38555804  0.25612592    -0.79900
O143        O  0.44807199  0.45184690  0.29033482    -0.83300
O144        O  0.44737113  0.45085163  0.21696426    -2.18000
O145        O  0.52916852  0.60605371  0.19287460    -0.66700
O146        O  0.51499019  0.56079823  0.14759347    -0.51300
C147        C  0.52537115  0.59555147  0.15896479     0.72100
O148        O  0.60540213  0.53311783  0.31339796    -0.59600
O149        O  0.56122346  0.52003966  0.35948030    -0.51600
C150        C  0.59610671  0.53177548  0.34746835     0.73900
O151        O  0.60356140  0.52514578  0.19311712    -0.71000
O152        O  0.55963254  0.51469656  0.14754719    -0.49700
C153        C  0.59387510  0.52329387  0.15908195     0.75300
O154        O  0.53584479  0.60851609  0.31298054    -0.66300
O155        O  0.51919922  0.56361687  0.35908095    -0.53500
C156        C  0.53265798  0.59885073  0.34708720     0.73700
Zr157      Zr  0.52124878  0.57714910  0.25332523     2.77500
O158        O  0.58452384  0.63584409  0.25251816    -0.97100
O159        O  0.48195318  0.60815059  0.25430999    -0.77900
Zr160      Zr  0.57410236  0.51639844  0.25360853     2.70100
O161        O  0.63956552  0.57164903  0.25127918    -0.79100
O162        O  0.59581981  0.46936378  0.25797829    -0.98200
Zr163      Zr  0.49805490  0.49977962  0.32849225     2.21500
Zr164      Zr  0.49802433  0.49891878  0.17919323     2.11100
O165        O  0.54847274  0.54745702  0.21679234    -2.46900
O166        O  0.54787872  0.54713757  0.28982962    -0.78900
O167        O  0.47124035  0.52951799  0.21622745    -0.71100
O168        O  0.52469983  0.46874560  0.29137822    -2.32100
O169        O  0.47095434  0.53022722  0.29117145    -2.28300
O170        O  0.52463188  0.46826107  0.21644757    -0.72900
H171        H  0.42710316  0.43135673  0.20175410     0.79100
H172        H  0.53547642  0.45678545  0.30688010     0.80200
H173        H  0.56870608  0.56688621  0.20151811     0.82400
H174        H  0.46034323  0.54242406  0.30658498     0.80000
H175        H  0.48859719  0.35806946  0.25353496     0.43100
H176        H  0.59380691  0.45955465  0.23249111     0.42000
H177        H  0.63683172  0.59224731  0.23883688     0.41700
H178        H  0.59857621  0.63238495  0.23168284     0.39600
H179        H  0.46340735  0.59596244  0.23371203     0.42800
H180        H  0.39631808  0.53225116  0.28266348     0.37600
H181        H  0.36311815  0.40254822  0.25973333     0.43700
H182        H  0.39931906  0.36358985  0.22836578     0.40100
H183        H  0.57940402  0.65652910  0.24428385     0.45000
H184        H  0.36833662  0.50981110  0.24996009     0.43700
H185        H  0.41264621  0.34277432  0.25650034     0.43900
H186        H  0.62400458  0.48517921  0.26260097     0.44200
O187        O  0.79014671  0.47078358  0.47584672    -0.74600
O188        O  0.85126415  0.51432989  0.49426431    -0.53500
C189        C  0.82623080  0.48199786  0.48037628     0.79100
O190        O  0.72225524  0.56601694  0.40049378    -0.59200
O191        O  0.68709153  0.57003124  0.44828997    -0.52300
C192        C  0.69159920  0.56506506  0.41413885     0.71100
O193        O  0.83615692  0.55886027  0.40089015    -0.73800
O194        O  0.87799540  0.56571909  0.44716297    -0.54400
C195        C  0.86625879  0.55812738  0.41372352     0.77100
O196        O  0.67560698  0.46786825  0.99040061    -0.58900
O197        O  0.66034556  0.51547108  0.99772745    -0.52100
C198        C  0.65222705  0.47994456  0.49024841     0.73700
Zr199      Zr  0.74417156  0.49062726  0.99811610     2.54700
O200        O  0.71285739  0.43093836  0.46072421    -0.79500
O201        O  0.72671540  0.44488380  0.04889696    -0.92900
Zr202      Zr  0.78653059  0.57583251  0.42257570     2.64700
O203        O  0.77140013  0.54444629  0.36232201    -0.97900
O204        O  0.81940295  0.63489263  0.38608170    -0.79900
O205        O  0.79671798  0.53295263  0.45968996    -0.83300
O206        O  0.73375551  0.53217608  0.45965591    -2.18000
O207        O  0.71676640  0.54969337  0.10262663    -0.66700
O208        O  0.68380554  0.56089343  0.05740707    -0.51300
C209        C  0.68690001  0.55108518  0.09031408     0.72100
O210        O  0.89571750  0.68081387  0.50435149    -0.59600
O211        O  0.90725009  0.63043836  0.50115736    -0.51600
C212        C  0.91808752  0.66775222  0.00299742     0.73900
O213        O  0.78505398  0.68095689  0.51096393    -0.71000
O214        O  0.72283220  0.63097391  0.50899585    -0.49700
C215        C  0.74740828  0.66697333  0.01250867     0.75300
O216        O  0.83611411  0.55540328  0.10305921    -0.66300
O217        O  0.87804650  0.56448677  0.05620764    -0.53500
C218        C  0.86685506  0.55646246  0.08978705     0.73700
Zr219      Zr  0.78292453  0.56626177  0.08069726     2.77500
O220        O  0.80713224  0.62022960  0.12378204    -0.97100
O221        O  0.76401705  0.52624785  0.13601638    -0.77900
Zr222      Zr  0.82572802  0.65207494  0.50636988     2.70100
O223        O  0.85035256  0.70145779  0.05455873    -0.79100
O224        O  0.84868677  0.70290458  0.45984064    -0.98200
Zr225      Zr  0.84705813  0.57112369  0.50186830     2.21500
Zr226      Zr  0.72227906  0.57171426  0.00277374     2.11100
O227        O  0.77247562  0.61037436  0.04523699    -2.46900
O228        O  0.83078471  0.60679219  0.04069646    -0.78900
O229        O  0.73075319  0.52752347  0.04036326    -0.71100
O230        O  0.83846513  0.61462255  0.46346678    -2.32100
O231        O  0.79497420  0.52665000  0.04005358    -2.28300
O232        O  0.77442273  0.61527229  0.46393405    -0.72900
H233        H  0.71196059  0.51661010  0.44385112     0.79100
H234        H  0.86135573  0.63071021  0.44904279     0.80200
H235        H  0.76510517  0.62480274  0.06146864     0.82400
H236        H  0.80101750  0.50907254  0.05278809     0.80000
H237        H  0.80465464  0.64835291  0.39083679     0.43100
H238        H  0.82502188  0.69895439  0.44709171     0.42000
H239        H  0.84523842  0.68673425  0.07786021     0.41700
H240        H  0.79180101  0.60888388  0.14652291     0.39600
H241        H  0.76311583  0.50200835  0.12824176     0.42800
H242        H  0.70966401  0.41923400  0.03760359     0.37600
H243        H  0.71717273  0.44004531  0.43480468     0.43700
H244        H  0.74759071  0.51920288  0.36635401     0.40100
H245        H  0.83352243  0.62569033  0.13017444     0.45000
H246        H  0.70919041  0.44971480  0.06451412     0.43700
H247        H  0.76304932  0.55945705  0.34693131     0.43900
H248        H  0.85777982  0.72713498  0.47407135     0.44200
O249        O  0.67870616  0.20923989  0.47458835    -0.74600
O250        O  0.66064240  0.14777494  0.49213407    -0.53500
C251        C  0.65357731  0.17321881  0.47874042     0.79100
O252        O  0.84168200  0.27404810  0.39953652    -0.59200
O253        O  0.88077720  0.31027307  0.44700300    -0.52300
C254        C  0.87109701  0.30519448  0.41290069     0.71100
O255        O  0.72164508  0.16067179  0.40140892    -0.73800
O256        O  0.68817733  0.11792819  0.44752731    -0.54400
C257        C  0.69159273  0.12989906  0.41423706     0.77100
O258        O  0.78870896  0.32191695  0.98099420    -0.58900
O259        O  0.85131451  0.33805464  0.99137632    -0.52100
C260        C  0.82719404  0.34658022  0.48331704     0.73700
Zr261      Zr  0.74349995  0.25441045  0.99378688     2.54700
O262        O  0.71958204  0.28593096  0.45305442    -0.79500
O263        O  0.71793766  0.27438676  0.04505796    -0.92900
Zr264      Zr  0.78811305  0.20979733  0.42293520     2.64700
O265        O  0.77291247  0.22259573  0.36116014    -0.97900
O266        O  0.81607307  0.17617887  0.39044899    -0.79900
O267        O  0.73448908  0.20094153  0.45870035    -0.83300
O268        O  0.79698167  0.26355675  0.45811829    -2.18000
O269        O  0.82906897  0.28172289  0.10330251    -0.66700
O270        O  0.87089577  0.31576811  0.05667159    -0.51300
C271        C  0.85930410  0.31193121  0.09017562     0.72100
O272        O  0.78220746  0.10408306  0.51717837    -0.59600
O273        O  0.72011435  0.09173977  0.51300924    -0.51600
C274        C  0.74516903  0.08173584  0.01980288     0.73900
O275        O  0.89339355  0.21464359  0.51448505    -0.71000
O276        O  0.90654156  0.27705477  0.51081336    -0.49700
C277        C  0.91587828  0.25188190  0.01506766     0.75300
O278        O  0.71494683  0.16395964  0.10279074    -0.66300
O279        O  0.68112095  0.12335492  0.05527071    -0.53500
C280        C  0.68489933  0.13390696  0.08914867     0.73700
Zr281      Zr  0.77788365  0.21773933  0.08002581     2.77500
O282        O  0.80538751  0.19357731  0.12575136    -0.97100
O283        O  0.75183090  0.24030532  0.12861485    -0.77900
Zr284      Zr  0.82360789  0.17326270  0.50897625     2.70100
O285        O  0.85189727  0.15293079  0.05731956    -0.79100
O286        O  0.84600599  0.14719853  0.46019607    -0.98200
Zr287      Zr  0.72159767  0.15170458  0.50257759     2.21500
Zr288      Zr  0.84669841  0.27622044  0.50175852     2.11100
O289        O  0.83283973  0.22705103  0.04578319    -2.46900
O290        O  0.76958421  0.16342950  0.04533463    -0.78900
O291        O  0.79248738  0.26888724  0.03776205    -0.71100
O292        O  0.77361961  0.15810206  0.46506348    -2.32100
O293        O  0.72770642  0.20446727  0.03699768    -2.28300
O294        O  0.83955714  0.22344477  0.46504660    -0.72900
H295        H  0.80301446  0.28464487  0.44146352     0.79100
H296        H  0.76670727  0.13436823  0.45203281     0.80200
H297        H  0.85430720  0.23482619  0.06255074     0.82400
H298        H  0.70381562  0.19858291  0.04911864     0.80000
H299        H  0.79413053  0.15547047  0.37649529     0.43100
H300        H  0.86517514  0.17018089  0.44622691     0.42000
H301        H  0.85043508  0.16620288  0.07985043     0.41700
H302        H  0.82904377  0.21689656  0.13461263     0.39600
H303        H  0.73394538  0.24674112  0.11560695     0.42800
H304        H  0.69034283  0.25404357  0.04674805     0.37600
H305        H  0.72580637  0.28083634  0.42794054     0.43700
H306        H  0.77174809  0.24671628  0.36367718     0.40100
H307        H  0.78726408  0.18556009  0.14689321     0.45000
H308        H  0.71736915  0.29744416  0.03578557     0.43700
H309        H  0.79638430  0.23001131  0.34620810     0.43900
H310        H  0.86168226  0.13794490  0.47320363     0.44200
O311        O  0.31966244  0.78911354  0.47240082    -0.74600
O312        O  0.33786561  0.85038544  0.49091861    -0.53500
C313        C  0.34475691  0.82515891  0.47657590     0.79100
O314        O  0.15702866  0.72421274  0.39892574    -0.59200
O315        O  0.11873440  0.68653133  0.44616701    -0.52300
C316        C  0.12798176  0.69256691  0.41207978     0.71100
O317        O  0.27764645  0.83775573  0.40210031    -0.73800
O318        O  0.30998064  0.88128028  0.44804995    -0.54400
C319        C  0.30720594  0.86898995  0.41494836     0.77100
O320        O  0.21014632  0.67623862  0.97793520    -0.58900
O321        O  0.14775995  0.65969625  0.99042363    -0.52100
C322        C  0.17382868  0.65160482  0.48006702     0.73700
Zr323      Zr  0.25520686  0.74339408  0.99307942     2.54700
O324        O  0.28395350  0.71167625  0.45920544    -0.79500
O325        O  0.28102401  0.72414259  0.04454230    -0.92900
Zr326      Zr  0.21085717  0.78835927  0.42273484     2.64700
O327        O  0.22620630  0.77792777  0.36019789    -0.97900
O328        O  0.18289156  0.82250615  0.39124752    -0.79900
O329        O  0.26428917  0.79706268  0.45853248    -0.83300
O330        O  0.20233461  0.73433889  0.45713691    -2.18000
O331        O  0.16828085  0.71337215  0.10108426    -0.66700
O332        O  0.12395285  0.68214335  0.05538567    -0.51300
C333        C  0.13664815  0.68449022  0.08831575     0.72100
O334        O  0.21497952  0.89320349  0.51586709    -0.59600
O335        O  0.27724550  0.90560885  0.51428288    -0.51600
C336        C  0.25286931  0.91602438  0.01753281     0.73900
O337        O  0.10439318  0.78269309  0.50509180    -0.71000
O338        O  0.09217164  0.72057074  0.50092299    -0.49700
C339        C  0.08170405  0.74616534  0.00390950     0.75300
O340        O  0.28274861  0.83148605  0.10304149    -0.66300
O341        O  0.31635950  0.87367152  0.05650587    -0.53500
C342        C  0.31253175  0.86227418  0.09005364     0.73700
Zr343      Zr  0.21943339  0.77838424  0.07986558     2.77500
O344        O  0.19117726  0.80305680  0.12418002    -0.97100
O345        O  0.24344062  0.75838876  0.13231201    -0.77900
Zr346      Zr  0.17407618  0.82367936  0.50922040     2.70100
O347        O  0.14893671  0.84077133  0.06380027    -0.79100
O348        O  0.15300556  0.85574310  0.46546678    -0.98200
Zr349      Zr  0.27693840  0.84618351  0.50254646     2.21500
Zr350      Zr  0.15244243  0.72099462  0.00107884     2.11100
O351        O  0.16427101  0.76923957  0.04590652    -2.46900
O352        O  0.22849655  0.83356545  0.04635453    -0.78900
O353        O  0.20558179  0.72787025  0.03687453    -0.71100
O354        O  0.22442122  0.83908139  0.46565635    -2.32100
O355        O  0.27010028  0.79232426  0.03716045    -2.28300
O356        O  0.15977711  0.77407279  0.46503722    -0.72900
H357        H  0.19661105  0.71377405  0.43990755     0.79100
H358        H  0.23117909  0.86285888  0.45280991     0.80200
H359        H  0.14226411  0.76092160  0.06210226     0.82400
H360        H  0.29386657  0.79797387  0.04937976     0.80000
H361        H  0.20550597  0.84750427  0.38382590     0.43100
H362        H  0.13747614  0.83560786  0.44695628     0.42000
H363        H  0.17202193  0.85822067  0.07864496     0.41700
H364        H  0.19868679  0.79772182  0.14857461     0.39600
H365        H  0.24389301  0.73509102  0.12358662     0.42800
H366        H  0.30939988  0.73858108  0.04064525     0.37600
H367        H  0.27673865  0.71245592  0.43319244     0.43700
H368        H  0.22568285  0.75286414  0.36122674     0.40100
H369        H  0.20671479  0.83155363  0.12157362     0.45000
H370        H  0.27322978  0.69684035  0.03925546     0.43700
H371        H  0.20331612  0.77268440  0.34523741     0.43900
H372        H  0.13388063  0.85980690  0.47922998     0.44200
O373        O  0.56271531  0.83918466  0.40171484    -0.74600
O374        O  0.57157497  0.88208873  0.44759789    -0.53500
C375        C  0.56310662  0.86991104  0.41436561     0.79100
O376        O  0.46840879  0.67775124  0.98751464    -0.59200
O377        O  0.51541879  0.66209248  0.99691958    -0.52300
C378        C  0.48151623  0.65311931  0.48773662     0.71100
O379        O  0.47206772  0.79087188  0.47265356    -0.73800
O380        O  0.51417444  0.85224557  0.49148745    -0.54400
C381        C  0.48235051  0.82675622  0.47689061     0.77100
O382        O  0.56862560  0.72564894  0.40036372    -0.58900
O383        O  0.57153663  0.68966435  0.44799790    -0.52100
C384        C  0.56702071  0.69462334  0.41382392     0.73700
Zr385      Zr  0.57961796  0.78977533  0.42393866     2.54700
O386        O  0.55419550  0.77653750  0.36127272    -0.79500
O387        O  0.64248734  0.82366757  0.39360428    -0.92900
Zr388      Zr  0.49062854  0.74579523  0.99689649     2.64700
O389        O  0.42913039  0.71471089  0.46298060    -0.97900
O390        O  0.44724680  0.72962605  0.04958314    -0.79900
O391        O  0.53458474  0.79845327  0.45927747    -0.83300
O392        O  0.53432873  0.73605033  0.45934230    -2.18000
O393        O  0.68094173  0.78534971  0.51204241    -0.66700
O394        O  0.63120944  0.72384766  0.01140518    -0.51300
C395        C  0.66707662  0.74938414  0.01484029     0.72100
O396        O  0.55365114  0.83570598  0.10418815    -0.59600
O397        O  0.56006076  0.87630306  0.05681135    -0.51600
C398        C  0.55348823  0.86567616  0.09066977     0.73900
O399        O  0.55127003  0.71790329  0.10364686    -0.71000
O400        O  0.56001776  0.68445115  0.05713583    -0.49700
C401        C  0.55184204  0.68791747  0.09054582     0.75300
O402        O  0.67961151  0.89586970  0.51774217    -0.66300
O403        O  0.62984213  0.90806007  0.51172680    -0.53500
C404        C  0.66519836  0.91893076  0.01855508     0.73700
Zr405      Zr  0.65232357  0.82659714  0.50994497     2.77500
O406        O  0.69694171  0.84989668  0.06192627    -0.97100
O407        O  0.70441670  0.85478802  0.46474782    -0.77900
Zr408      Zr  0.56331969  0.78234248  0.08157778     2.70100
O409        O  0.61346208  0.80676200  0.12879435    -0.79100
O410        O  0.51555923  0.75985601  0.13093959    -0.98200
Zr411      Zr  0.57114807  0.84830977  0.50248529     2.21500
Zr412      Zr  0.57172116  0.72385773  0.00330686     2.11100
O413        O  0.60883677  0.77337658  0.04679280    -2.46900
O414        O  0.60852374  0.83678589  0.04630546    -0.78900
O415        O  0.61712539  0.77622886  0.46630171    -0.71100
O416        O  0.52581417  0.79584736  0.03936318    -2.32100
O417        O  0.61692698  0.84119639  0.46606561    -2.28300
O418        O  0.52625907  0.73136298  0.03966572    -0.72900
H419        H  0.51918217  0.71471299  0.44293190     0.79100
H420        H  0.50793928  0.80177734  0.05167762     0.80200
H421        H  0.62278405  0.76567514  0.06330056     0.82400
H422        H  0.63379331  0.86479043  0.45286592     0.80000
H423        H  0.44479278  0.70533448  0.05940386     0.43100
H424        H  0.49521958  0.73368449  0.12313116     0.42000
H425        H  0.63442093  0.83144048  0.11863702     0.41700
H426        H  0.69120423  0.82631736  0.07595343     0.39600
H427        H  0.72842861  0.86512116  0.47955837     0.42800
H428        H  0.63665206  0.82751111  0.36790854     0.37600
H429        H  0.52590392  0.75956704  0.36444372     0.43700
H430        H  0.43382562  0.70370720  0.44036876     0.40100
H431        H  0.72279472  0.85890117  0.05093872     0.45000
H432        H  0.65073929  0.80408994  0.39163219     0.43700
H433        H  0.41151308  0.69196289  0.47812533     0.43900
H434        H  0.52843695  0.75530961  0.15214647     0.46000
O435        O  0.20721627  0.52431952  0.46866674    -0.74600
O436        O  0.14644914  0.48313107  0.48962898    -0.53500
C437        C  0.17157850  0.51441183  0.47404313     0.79100
O438        O  0.27265922  0.42794095  0.40095357    -0.59200
O439        O  0.30899993  0.42588523  0.44864375    -0.52300
C440        C  0.30391871  0.43013840  0.41445993     0.71100
O441        O  0.16025312  0.43652811  0.40179457    -0.73800
O442        O  0.11559668  0.42482868  0.44670644    -0.54400
C443        C  0.12879434  0.43507057  0.41394715     0.77100
O444        O  0.32034492  0.52894855  0.98377655    -0.58900
O445        O  0.33611565  0.48222314  0.99447295    -0.52100
C446        C  0.34512508  0.51586295  0.48619565     0.73700
Zr447      Zr  0.25209785  0.50656934  0.99130856     2.54700
O448        O  0.28596813  0.56757994  0.45972275    -0.79500
O449        O  0.27010715  0.55577877  0.03884177    -0.92900
Zr450      Zr  0.20806339  0.41684698  0.42351634     2.64700
O451        O  0.21908495  0.43653607  0.35884530    -0.97900
O452        O  0.17322129  0.35327780  0.39465046    -0.79900
O453        O  0.19938569  0.46221679  0.45811955    -0.83300
O454        O  0.26209254  0.46272206  0.45826472    -2.18000
O455        O  0.28079094  0.44925555  0.10168283    -0.66700
O456        O  0.31399420  0.43939049  0.05573336    -0.51300
C457        C  0.31070707  0.44834527  0.08898224     0.72100
O458        O  0.10213399  0.31761525  0.51704324    -0.59600
O459        O  0.09001218  0.36757304  0.51349748    -0.51600
C460        C  0.07874798  0.33236543  0.01569619     0.73900
O461        O  0.21216061  0.31719861  0.51545464    -0.71000
O462        O  0.27393403  0.36642313  0.01025732    -0.49700
C463        C  0.24820103  0.33069381  0.01428286     0.75300
O464        O  0.16379952  0.44670710  0.10226872    -0.66300
O465        O  0.12207729  0.43814989  0.05533270    -0.53500
C466        C  0.13333074  0.44596892  0.08892335     0.73700
Zr467      Zr  0.21670076  0.43688358  0.07861898     2.77500
O468        O  0.19411180  0.38929768  0.12810156    -0.97100
O469        O  0.24333983  0.48887405  0.12401812    -0.77900
Zr470      Zr  0.17151794  0.34592498  0.51093387     2.70100
O471        O  0.14869925  0.30029762  0.06028044    -0.79100
O472        O  0.14385942  0.29261692  0.46702848    -0.98200
Zr473      Zr  0.14967706  0.42628805  0.50184618     2.21500
Zr474      Zr  0.27423258  0.42599879  0.00136794     2.11100
O475        O  0.22524511  0.39012040  0.04570351    -2.46900
O476        O  0.16764525  0.39422188  0.04086969    -0.78900
O477        O  0.26714885  0.47277931  0.03582716    -0.71100
O478        O  0.15671318  0.38015149  0.46600414    -2.32100
O479        O  0.20301934  0.47363344  0.03572129    -2.28300
O480        O  0.22165991  0.38008240  0.46681224    -0.72900
H481        H  0.28337668  0.47782282  0.44180226     0.79100
H482        H  0.13303006  0.36302726  0.45303433     0.80200
H483        H  0.23292018  0.37647315  0.06261703     0.82400
H484        H  0.19736131  0.49187961  0.04768057     0.80000
H485        H  0.15378026  0.35458928  0.37866630     0.43100
H486        H  0.16496829  0.29882289  0.44917148     0.42000
H487        H  0.15082745  0.31596671  0.08228346     0.41700
H488        H  0.20022922  0.40489425  0.15097039     0.39600
H489        H  0.24335075  0.51092230  0.11146765     0.42800
H490        H  0.25966111  0.57219716  0.02991793     0.37600
H491        H  0.28742327  0.55980388  0.43407546     0.43700
H492        H  0.24544817  0.45943675  0.35781505     0.40100
H493        H  0.16552739  0.37577479  0.12631948     0.45000
H494        H  0.29853268  0.57228538  0.03635453     0.43700
H495        H  0.22124887  0.41580680  0.34593685     0.43900
H496        H  0.14134870  0.27016792  0.48104704     0.44200
O497        O  0.43736111  0.16052397  0.40166873    -0.74600
O498        O  0.42770456  0.11769941  0.44783209    -0.53500
C499        C  0.43647281  0.12966127  0.41454656     0.79100
O500        O  0.52733885  0.32145781  0.99120563    -0.59200
O501        O  0.47953752  0.33611247  0.99968274    -0.52300
C502        C  0.51430664  0.34511898  0.49056968     0.71100
O503        O  0.52756306  0.20945115  0.48014047    -0.73800
O504        O  0.48316368  0.14681534  0.49306275    -0.54400
C505        C  0.51632098  0.17315460  0.48179616     0.77100
O506        O  0.43173364  0.27467765  0.40062487    -0.58900
O507        O  0.42749224  0.30973018  0.44846337    -0.52100
C508        C  0.43294985  0.30545494  0.41435033     0.73700
Zr509      Zr  0.42127558  0.21051934  0.42377875     2.54700
O510        O  0.45527687  0.22870740  0.36483212    -0.79500
O511        O  0.36148910  0.17897469  0.38829148    -0.92900
Zr512      Zr  0.50620872  0.25370332  0.50015467     2.64700
O513        O  0.57009746  0.28469068  0.47120369    -0.97900
O514        O  0.54371346  0.26994070  0.05907205    -0.79900
O515        O  0.46448662  0.20131228  0.46168665    -0.83300
O516        O  0.46412437  0.26323170  0.46139115    -2.18000
O517        O  0.31527016  0.21154059  0.51115301    -0.66700
O518        O  0.36480729  0.27392396  0.51048464    -0.51300
C519        C  0.32900482  0.24835900  0.01169370     0.72100
O520        O  0.43916553  0.16008322  0.10522103    -0.59600
O521        O  0.43548076  0.12081908  0.05767917    -0.51600
C522        C  0.44080428  0.13077816  0.09169522     0.73900
O523        O  0.44281831  0.27868588  0.10364129    -0.71000
O524        O  0.43287520  0.31185201  0.05778754    -0.49700
C525        C  0.44180341  0.30862967  0.09099107     0.75300
O526        O  0.31710331  0.10145493  0.51393131    -0.66300
O527        O  0.36758135  0.09006450  0.51224682    -0.53500
C528        C  0.33195877  0.07884025  0.01579976     0.73700
Zr529      Zr  0.34451061  0.17072205  0.50657512     2.77500
O530        O  0.28964196  0.14050203  0.04788832    -0.97100
O531        O  0.29582290  0.14436656  0.45800705    -0.77900
Zr532      Zr  0.42792338  0.21281981  0.08207944     2.70100
O533        O  0.37242733  0.18686401  0.12344636    -0.79100
O534        O  0.46568999  0.22991298  0.13886560    -0.98200
Zr535      Zr  0.42588478  0.15025176  0.50303711     2.21500
Zr536      Zr  0.42425194  0.27394108  0.50323414     2.11100
O537        O  0.38420593  0.22269529  0.04524230    -2.46900
O538        O  0.38978836  0.16599482  0.04026857    -0.78900
O539        O  0.38082615  0.22224216  0.46424902    -0.71100
O540        O  0.46940724  0.20191564  0.04275123    -2.32100
O541        O  0.38188252  0.15741862  0.46382356    -2.28300
O542        O  0.46739695  0.26595526  0.04304631    -0.72900
H543        H  0.47954998  0.28473566  0.44527091     0.79100
H544        H  0.48691870  0.19614038  0.05596423     0.80200
H545        H  0.36912926  0.22965014  0.06103443     0.82400
H546        H  0.36585436  0.13408114  0.44991205     0.80000
H547        H  0.54979924  0.29667837  0.06482678     0.43100
H548        H  0.48864114  0.25559213  0.13397888     0.42000
H549        H  0.36162615  0.15848506  0.12263073     0.41700
H550        H  0.29634385  0.15975833  0.06788503     0.39600
H551        H  0.27087670  0.13487390  0.47107212     0.42800
H552        H  0.36344050  0.15915668  0.37347382     0.37600
H553        H  0.48304528  0.24339030  0.37159894     0.43700
H554        H  0.56522344  0.28752970  0.44490216     0.40100
H555        H  0.26786223  0.14037614  0.03464623     0.45000
H556        H  0.36425155  0.19871188  0.37009144     0.43700
H557        H  0.58433006  0.31148598  0.48087774     0.43900
H558        H  0.45023661  0.23499599  0.15707182     0.44200
C559        C  0.29731648  0.31774318  0.03992443    -0.12700
C560        C  0.26294590  0.30422014  0.01992822     0.09500
C561        C  0.24649929  0.26818485  0.00203186    -0.12700
C562        C  0.26659096  0.24773463  0.00121756    -0.12700
C563        C  0.30290371  0.26347491  0.01837373     0.09500
C564        C  0.31707533  0.29752624  0.03921551    -0.12700
H565        H  0.31000572  0.34513053  0.05451503     0.13400
H566        H  0.21981921  0.25738447  0.98657547     0.13400
H567        H  0.25522529  0.22134577  0.98518838     0.13400
H568        H  0.34464673  0.30967407  0.05339662     0.13400
C569        C  0.44841829  0.58413362  0.50488948    -0.12700
C570        C  0.45384839  0.61312257  0.47978081     0.09500
C571        C  0.42787978  0.60506798  0.45069027    -0.12700
C572        C  0.39348821  0.57017250  0.45007637    -0.12700
C573        C  0.38520742  0.54359684  0.47863841     0.09500
C574        C  0.41376532  0.54901203  0.50429602    -0.12700
H575        H  0.46869853  0.59018405  0.52725941     0.13400
H576        H  0.43249054  0.62715727  0.43066532     0.13400
H577        H  0.37175438  0.56563072  0.42965390     0.13400
H578        H  0.40754406  0.52830148  0.52628911     0.13400
C579        C  0.30196608  0.97812655  0.04369786    -0.12700
C580        C  0.26752609  0.95712795  0.02378996     0.09500
C581        C  0.25046287  0.97644279  0.00658735    -0.12700
C582        C  0.27002108  0.01689826  0.00617589    -0.12700
C583        C  0.30648209  0.03770693  0.02298757     0.09500
C584        C  0.32125985  0.01814698  0.04338251    -0.12700
H585        H  0.31504423  0.96356582  0.05782214     0.13400
H586        H  0.22289152  0.96092791  0.49150532     0.13400
H587        H  0.25779642  0.03222539  0.49056667     0.13400
H588        H  0.34895938  0.03385698  0.05730245     0.13400
C589        C  0.18440114  0.60725790  0.44158249    -0.12700
C590        C  0.16208445  0.61252530  0.46832899     0.09500
C591        C  0.13368660  0.58084044  0.48799115    -0.12700
C592        C  0.13262985  0.54553409  0.48574372    -0.12700
C593        C  0.16014427  0.54251301  0.46400990     0.09500
C594        C  0.18338739  0.57216040  0.43935128    -0.12700
H595        H  0.20548702  0.63137952  0.42522785     0.13400
H596        H  0.11573927  0.58450534  0.50819050     0.13400
H597        H  0.11395991  0.52256981  0.50450797     0.13400
H598        H  0.20395667  0.56980422  0.42155506     0.13400
C599        C  0.41519621  0.86391325  0.98909456    -0.12700
C600        C  0.38435454  0.83712194  0.46584369     0.09500
C601        C  0.39070632  0.81460587  0.44017657    -0.12700
C602        C  0.42565295  0.81509955  0.44020301    -0.12700
C603        C  0.45424140  0.83804967  0.46594094     0.09500
C604        C  0.45047328  0.86478751  0.98883411    -0.12700
H605        H  0.41033093  0.88079872  0.00960822     0.13400
H606        H  0.36736673  0.79364308  0.42299091     0.13400
H607        H  0.42865596  0.79449469  0.42304188     0.13400
H608        H  0.47209055  0.88218095  0.00926614     0.13400
C609        C  0.67437661  0.97990470  0.04434577    -0.12700
C610        C  0.69048355  0.96003734  0.02654228     0.09500
C611        C  0.72847694  0.98060256  0.01294381    -0.12700
C612        C  0.74839518  0.02110444  0.01346792    -0.12700
C613        C  0.73015299  0.04073835  0.02752841     0.09500
C614        C  0.69404864  0.01994405  0.04481172    -0.12700
H615        H  0.64547138  0.96446504  0.05594968     0.13400
H616        H  0.74143192  0.96560578  0.99944336     0.13400
H617        H  0.77647284  0.03688584  0.00029279     0.13400
H618        H  0.67996716  0.03468269  0.05664614     0.13400
C619        C  0.01735795  0.31942507  0.04332580    -0.12700
C620        C  0.03752284  0.30633387  0.02159271     0.09500
C621        C  0.01731852  0.27124030  0.00228500    -0.12700
C622        C  0.97686468  0.25128755  0.00210950    -0.12700
C623        C  0.95696362  0.26663608  0.02117869     0.09500
C624        C  0.97732924  0.29968716  0.04314770    -0.12700
H625        H  0.03263936  0.34614329  0.05889204     0.13400
H626        H  0.03265962  0.26088798  0.98536114     0.13400
H627        H  0.96134221  0.22568187  0.98509148     0.13400
H628        H  0.96226617  0.31141133  0.05862965     0.13400
C629        C  0.58407635  0.13580850  0.98853210    -0.12700
C630        C  0.61375433  0.16163280  0.46931429     0.09500
C631        C  0.60702913  0.18393267  0.44372858    -0.12700
C632        C  0.57250993  0.18426190  0.44482536    -0.12700
C633        C  0.54453382  0.16201167  0.47125205     0.09500
C634        C  0.54946611  0.13622127  0.99059891    -0.12700
H635        H  0.58877760  0.11750458  0.00741031     0.13400
H636        H  0.62992555  0.20415021  0.42569967     0.13400
H637        H  0.56926058  0.20467234  0.42761386     0.13400
H638        H  0.52803541  0.11814406  0.01087503     0.13400
C639        C  0.97961712  0.67960210  0.47432576    -0.12700
C640        C  0.95962901  0.69377164  0.99861724     0.09500
C641        C  0.98024283  0.72712374  0.02030547    -0.12700
C642        C  0.02078738  0.74626070  0.02079564    -0.12700
C643        C  0.04029983  0.73171672  0.99975439     0.09500
C644        C  0.01950130  0.70052343  0.97578122    -0.12700
H645        H  0.96422590  0.65346675  0.45793569     0.13400
H646        H  0.96512059  0.73670235  0.03846716     0.13400
H647        H  0.03663573  0.77065723  0.03915124     0.13400
H648        H  0.03421944  0.68719330  0.45829761     0.13400
C649        C  0.74879501  0.72953437  0.00166065    -0.12700
C650        C  0.73268027  0.69332481  0.01909573     0.09500
C651        C  0.69911885  0.67990901  0.04045755    -0.12700
C652        C  0.67954664  0.70030070  0.04131617    -0.12700
C653        C  0.69318667  0.73434208  0.02072676     0.09500
C654        C  0.72891666  0.75012985  0.00245279    -0.12700
H655        H  0.77496314  0.74037908  0.98537244     0.13400
H656        H  0.68687793  0.65250442  0.05493930     0.13400
H657        H  0.65245323  0.68826479  0.05633479     0.13400
H658        H  0.73982803  0.77661050  0.98665397     0.13400
C659        C  0.81817784  0.42650528  0.44408800    -0.12700
C660        C  0.83881833  0.45474669  0.47082240     0.09500
C661        C  0.86531830  0.45149146  0.49386640    -0.12700
C662        C  0.86544443  0.41672908  0.49499960    -0.12700
C663        C  0.83928077  0.38597859  0.47286651     0.09500
C664        C  0.81844641  0.39199665  0.44511943    -0.12700
H665        H  0.79859922  0.42933382  0.42529978     0.13400
H666        H  0.88201474  0.47355585  0.51420030     0.13400
H667        H  0.88216388  0.41239667  0.51608674     0.13400
H668        H  0.79912054  0.36856072  0.42705631     0.13400
C669        C  0.60402508  0.42548312  0.45450096    -0.12700
C670        C  0.61226968  0.45225516  0.48284926     0.09500
C671        C  0.58332039  0.44824870  0.50734124    -0.12700
C672        C  0.54774779  0.41412865  0.50700001    -0.12700
C673        C  0.54196461  0.38483301  0.48214815     0.09500
C674        C  0.56865192  0.39178922  0.45398836    -0.12700
H675        H  0.62614714  0.42901435  0.43495658     0.13400
H676        H  0.58961962  0.46926181  0.52907188     0.13400
H677        H  0.52694812  0.40885023  0.52867204     0.13400
H678        H  0.56384520  0.36938691  0.43423119     0.13400
C679        C  0.46104784  0.37085894  0.13320360    -0.12600
C680        C  0.45228708  0.34190609  0.11490327    -0.14200
C681        C  0.45440794  0.36931605  0.37392781    -0.12600
C682        C  0.44358383  0.33922196  0.39105216    -0.14200
C683        C  0.62490750  0.53204281  0.13279262    -0.12600
C684        C  0.65369814  0.54043972  0.11437687    -0.14200
C685        C  0.65827723  0.55527217  0.39056139    -0.12600
C686        C  0.62844076  0.54459933  0.37309818    -0.14200
C687        C  0.53378934  0.62622278  0.13260533    -0.12600
C688        C  0.54197167  0.65491790  0.11432223    -0.14200
C689        C  0.54552048  0.63124376  0.37272496    -0.12600
C690        C  0.55670780  0.66125707  0.39008612    -0.14200
C691        C  0.34368711  0.45869220  0.11317083    -0.12600
C692        C  0.37210110  0.46724027  0.13216340    -0.14200
C693        C  0.36747077  0.45353861  0.37326318    -0.12600
C694        C  0.33743039  0.44128375  0.39076075    -0.14200
C695        C  0.90993735  0.53769697  0.13195375    -0.12600
C696        C  0.89018792  0.54670400  0.11344665    -0.14200
C697        C  0.88836873  0.54669896  0.38997396    -0.12600
C698        C  0.90808797  0.53681879  0.37238503    -0.14200
C699        C  0.90321650  0.37300762  0.13261794    -0.12600
C700        C  0.88233599  0.34465103  0.11416169    -0.14200
C701        C  0.91280998  0.36866217  0.37208964    -0.12600
C702        C  0.89389879  0.33856881  0.38920882    -0.14200
C703        C  0.11020727  0.45564217  0.11263388    -0.12600
C704        C  0.09036969  0.46425047  0.13128439    -0.14200
C705        C  0.08759093  0.45775854  0.37311968    -0.12600
C706        C  0.10699074  0.44726173  0.39049737    -0.14200
C707        C  0.09316328  0.62374803  0.13127445    -0.12600
C708        C  0.11350135  0.65171125  0.11217805    -0.14200
C709        C  0.08557221  0.62923489  0.37168196    -0.12600
C710        C  0.10496908  0.65954936  0.38824703    -0.14200
C711        C  0.37315404  0.90614684  0.13287636    -0.12600
C712        C  0.34493614  0.88572959  0.11413658    -0.14200
C713        C  0.37059718  0.91081499  0.37430228    -0.12600
C714        C  0.34092209  0.89146025  0.39174682    -0.14200
C715        C  0.54381935  0.88864230  0.11457646    -0.12600
C716        C  0.53503118  0.90809776  0.13358235    -0.14200
C717        C  0.55131838  0.89184992  0.39093155    -0.12600
C718        C  0.54042236  0.91098430  0.37385685    -0.14200
C719        C  0.62371268  0.09091895  0.13177807    -0.12600
C720        C  0.65204983  0.11065055  0.11288533    -0.14200
C721        C  0.62856424  0.08825323  0.37296710    -0.12600
C722        C  0.65809571  0.10752283  0.39067920    -0.14200
C723        C  0.45088684  0.10781344  0.11543698    -0.12600
C724        C  0.46037224  0.08816530  0.13344943    -0.14200
C725        C  0.45766017  0.08738448  0.37364064    -0.12600
C726        C  0.44751736  0.10698638  0.39110613    -0.14200
O727        O  0.46611261  0.07310324  0.81472218    -0.74600
O728        O  0.48164865  0.04321807  0.86010609    -0.53500
C729        C  0.46983710  0.06650446  0.84868828     0.79100
O730        O  0.39318067  0.91928446  0.69382009    -0.59200
O731        O  0.43698287  0.95330592  0.64828315    -0.52300
C732        C  0.40293864  0.92743251  0.65984499     0.71100
O733        O  0.39290259  0.92300875  0.81452901    -0.73800
O734        O  0.43752407  0.95481878  0.86014554    -0.54400
C735        C  0.40279853  0.93073033  0.84846333     0.77100
O736        O  0.46761449  0.07501373  0.69421793    -0.58900
O737        O  0.47999496  0.04277369  0.64872666    -0.52100
C738        C  0.46998128  0.06734534  0.66023860     0.73700
Zr739      Zr  0.47711570  0.05443545  0.75430418     2.54700
O740        O  0.41411667  0.05025834  0.75287572    -0.79500
O741        O  0.51674430  0.12476730  0.75411693    -0.92900
Zr742      Zr  0.42234003  0.94079487  0.75423637     2.64700
O743        O  0.36036392  0.93897118  0.75423782    -0.97900
O744        O  0.39625305  0.87107579  0.75663467    -0.79900
O745        O  0.44981046  0.99763525  0.79085627    -0.83300
O746        O  0.44870458  0.99759150  0.71774704    -2.18000
O747        O  0.60399947  0.07814047  0.69292395    -0.66700
O748        O  0.55951682  0.04425883  0.64781289    -0.51300
C749        C  0.59374480  0.07008630  0.65906653     0.72100
O750        O  0.53374079  0.92504029  0.81323802    -0.59600
O751        O  0.51907050  0.95501663  0.85924324    -0.51600
C752        C  0.53089201  0.93190056  0.84729653     0.73900
O753        O  0.52885373  0.92264251  0.69290934    -0.71000
O754        O  0.51500375  0.95414551  0.64782391    -0.49700
C755        C  0.52530795  0.92976070  0.65908205     0.75300
O756        O  0.60682789  0.07370138  0.81287901    -0.66300
O757        O  0.56266688  0.04274347  0.85901145    -0.53500
C758        C  0.59735610  0.06633105  0.84691571     0.73700
Zr759      Zr  0.57568524  0.05627679  0.75340594     2.77500
O760        O  0.63604059  0.05491836  0.75253820    -0.97100
O761        O  0.60474195  0.12631247  0.75720925    -0.77900
Zr762      Zr  0.52078400  0.94296990  0.75353026     2.70100
O763        O  0.58290644  0.94524109  0.75248121    -0.79100
O764        O  0.48078488  0.87272679  0.75579631    -0.98200
Zr765      Zr  0.49968765  0.99881650  0.82851860     2.21500
Zr766      Zr  0.49835512  0.99878037  0.67976219     2.11100
O767        O  0.54858920  0.99962732  0.71670237    -2.46900
O768        O  0.54879408  0.99970607  0.79007330    -0.78900
O769        O  0.52653217  0.05621073  0.71667394    -0.71100
O770        O  0.47148771  0.94126311  0.79135207    -2.32100
O771        O  0.52713766  0.05620476  0.79120744    -2.28300
O772        O  0.47098998  0.94123823  0.71657146    -0.72900
H773        H  0.42847487  0.99711921  0.70272514     0.79100
H774        H  0.46053008  0.91844104  0.80675336     0.80200
H775        H  0.56849536  0.00000050  0.70123574     0.82400
H776        H  0.53850178  0.07904964  0.80660990     0.80000
H777        H  0.36781419  0.85994198  0.75696377     0.43100
H778        H  0.46991867  0.86500474  0.73063004     0.42000
H779        H  0.60229479  0.97297102  0.75570404     0.41700
H780        H  0.63531178  0.04135991  0.72939747     0.39600
H781        H  0.59175695  0.13291873  0.73758535     0.42800
H782        H  0.52907892  0.13163001  0.77877258     0.37600
H783        H  0.39730719  0.02742260  0.76829167     0.43700
H784        H  0.36054913  0.95306567  0.73167873     0.40100
H785        H  0.65638153  0.08215696  0.74831641     0.45000
H786        H  0.49785043  0.13397825  0.75446992     0.43700
H787        H  0.34091448  0.91158063  0.74921452     0.43900
H788        H  0.49952354  0.86342071  0.75796983     0.44200
O789        O  0.07254267  0.60715480  0.81239313    -0.74600
O790        O  0.04219596  0.56282269  0.85854094    -0.53500
C791        C  0.06533687  0.59768516  0.84643371     0.79100
O792        O  0.92164189  0.52884900  0.69264075    -0.59200
O793        O  0.95475351  0.51767116  0.64720531    -0.52300
C794        C  0.92989570  0.52724705  0.65870641     0.71100
O795        O  0.91977227  0.52685627  0.81341140    -0.73800
O796        O  0.95306794  0.51594388  0.85894188    -0.54400
C797        C  0.92771800  0.52502993  0.84738767     0.77100
O798        O  0.07494727  0.60509168  0.69177344    -0.58900
O799        O  0.04281119  0.55999660  0.64668225    -0.52100
C800        C  0.06770530  0.59449602  0.65789281     0.73700
Zr801      Zr  0.05480384  0.57663035  0.75263229     2.54700
O802        O  0.05391017  0.63717675  0.75134904    -0.79500
O803        O  0.12515518  0.60776672  0.75381271    -0.92900
Zr804      Zr  0.94116870  0.51903747  0.75318853     2.64700
O805        O  0.94197918  0.58053205  0.75511883    -0.97900
O806        O  0.87115333  0.47750362  0.75041641    -0.79900
O807        O  0.99818435  0.54822787  0.78962787    -0.83300
O808        O  0.99785910  0.54856982  0.71644129    -2.18000
O809        O  0.07633015  0.47180376  0.69173619    -0.66700
O810        O  0.04295765  0.48315787  0.64670553    -0.51300
C811        C  0.06830376  0.47413399  0.65787420     0.72100
O812        O  0.92539554  0.39157131  0.81320860    -0.59600
O813        O  0.95701480  0.43610532  0.85896326    -0.51600
C814        C  0.93360360  0.40114840  0.84719209     0.73900
O815        O  0.92148169  0.39287756  0.69270274    -0.71000
O816        O  0.95322292  0.43773941  0.64729771    -0.49700
C817        C  0.92859812  0.40316690  0.65874640     0.75300
O818        O  0.07406626  0.46696219  0.81253554    -0.66300
O819        O  0.04327411  0.48070306  0.85847785    -0.53500
C820        C  0.06674611  0.46926175  0.84662463     0.73700
Zr821      Zr  0.05581259  0.47957222  0.75263801     2.77500
O822        O  0.05565851  0.41838292  0.75167709    -0.97100
O823        O  0.12567422  0.52222768  0.75429869    -0.77900
Zr824      Zr  0.94224568  0.42207778  0.75315541     2.70100
O825        O  0.94496767  0.36250450  0.75169821    -0.79100
O826        O  0.87215118  0.39318442  0.75574787    -0.98200
Zr827      Zr  0.99893980  0.49949805  0.82775187     2.21500
Zr828      Zr  0.99813548  0.49924685  0.67894690     2.11100
O829        O  0.99881000  0.45009941  0.71628088    -2.46900
O830        O  0.99919346  0.45087204  0.78938878    -0.78900
O831        O  0.05588350  0.52839058  0.71545534    -0.71100
O832        O  0.94131639  0.47029378  0.79063710    -2.32100
O833        O  0.05630317  0.52861024  0.79015164    -2.28300
O834        O  0.94076304  0.47007882  0.71591023    -0.72900
H835        H  0.99782505  0.56846289  0.70128693     0.79100
H836        H  0.91851211  0.45850186  0.80607274     0.80200
H837        H  0.99883999  0.43028477  0.70097055     0.82400
H838        H  0.07924588  0.54026205  0.80541044     0.80000
H839        H  0.86137129  0.49496091  0.74305640     0.43100
H840        H  0.86555939  0.40359177  0.73385048     0.42000
H841        H  0.97051998  0.36975767  0.76248437     0.41700
H842        H  0.04010848  0.40436405  0.72976477     0.39600
H843        H  0.13156655  0.53862855  0.73203783     0.42800
H844        H  0.13408994  0.63576335  0.75570885     0.37600
H845        H  0.02632370  0.62927552  0.74786017     0.43700
H846        H  0.95370393  0.59347559  0.73143267     0.40100
H847        H  0.08252309  0.42548366  0.74516791     0.45000
H848        H  0.13254658  0.60447904  0.72854775     0.43700
H849        H  0.91443570  0.57338038  0.75307039     0.43900
H850        H  0.86198212  0.36549629  0.74993699     0.44200
O851        O  0.39103839  0.46387583  0.81345489    -0.74600
O852        O  0.43530401  0.47791585  0.85963105    -0.53500
C853        C  0.40025693  0.46528613  0.84752415     0.79100
O854        O  0.46920085  0.39256662  0.69297099    -0.59200
O855        O  0.48104304  0.43714058  0.64760260    -0.52300
C856        C  0.47166769  0.40263708  0.65899316     0.71100
O857        O  0.46362033  0.39097917  0.81396154    -0.73800
O858        O  0.47900625  0.43593730  0.85980905    -0.54400
C859        C  0.46668346  0.40084954  0.84803326     0.77100
O860        O  0.39374766  0.47484434  0.69335324    -0.58900
O861        O  0.43720002  0.48367280  0.64779266    -0.52100
C862        C  0.40332163  0.47616833  0.65933767     0.73700
Zr863      Zr  0.42246751  0.48117937  0.75382097     2.54700
O864        O  0.36041998  0.42159031  0.74905259    -0.79500
O865        O  0.39442248  0.52308049  0.75793641    -0.92900
Zr866      Zr  0.47615793  0.42114598  0.75364690     2.64700
O867        O  0.41303283  0.36230740  0.75308552    -0.97900
O868        O  0.51483517  0.38949365  0.75624543    -0.79900
O869        O  0.44915817  0.45097108  0.79008230    -0.83300
O870        O  0.44854302  0.45052022  0.71709759    -2.18000
O871        O  0.52764617  0.60593981  0.69390411    -0.66700
O872        O  0.51533199  0.56130160  0.64842039    -0.51300
C873        C  0.52456479  0.59572759  0.65990902     0.72100
O874        O  0.60559410  0.53014874  0.81336548    -0.59600
O875        O  0.56141609  0.51794541  0.85929849    -0.51600
C876        C  0.59610677  0.52889109  0.84736699     0.73900
O877        O  0.60416063  0.52517987  0.69262399    -0.71000
O878        O  0.56001951  0.51521523  0.64738182    -0.49700
C879        C  0.59424308  0.52355630  0.65868524     0.75300
O880        O  0.53691834  0.60758160  0.81428432    -0.66300
O881        O  0.51964372  0.56215751  0.85995969    -0.53500
C882        C  0.53328289  0.59752929  0.84831533     0.73700
Zr883      Zr  0.52213975  0.57706143  0.75412666     2.77500
O884        O  0.58604564  0.63496754  0.75097610    -0.97100
O885        O  0.48477796  0.60988801  0.75888876    -0.77900
Zr886      Zr  0.57520861  0.51682102  0.75327112     2.70100
O887        O  0.63725336  0.57664389  0.75087092    -0.79100
O888        O  0.60206481  0.47385861  0.75548317    -0.98200
Zr889      Zr  0.49872385  0.49884874  0.82848220     2.21500
Zr890      Zr  0.49860289  0.49916199  0.67935302     2.11100
O891        O  0.54904759  0.54757400  0.71690679    -2.46900
O892        O  0.54873373  0.54677823  0.79030631    -0.78900
O893        O  0.47194180  0.52956926  0.71689012    -0.71100
O894        O  0.52614144  0.46870032  0.79109069    -2.32100
O895        O  0.47173782  0.52954040  0.79151368    -2.28300
O896        O  0.52579866  0.46869461  0.71608165    -0.72900
H897        H  0.42831584  0.43103990  0.70184283     0.79100
H898        H  0.53709150  0.45679880  0.80644726     0.80200
H899        H  0.56912747  0.56706588  0.70155606     0.82400
H900        H  0.46108012  0.54151361  0.80716054     0.80000
H901        H  0.49592184  0.36197257  0.76138607     0.43100
H902        H  0.59220480  0.45784696  0.73289623     0.42000
H903        H  0.63231743  0.59610824  0.76277795     0.41700
H904        H  0.59778594  0.63247080  0.72780661     0.39600
H905        H  0.46333152  0.59620093  0.74105116     0.42800
H906        H  0.40137723  0.53483347  0.78283199     0.37600
H907        H  0.36576976  0.40111256  0.75743374     0.43700
H908        H  0.39905901  0.36546566  0.73201589     0.40100
H909        H  0.58088804  0.65641510  0.74620168     0.45000
H910        H  0.36615678  0.50497060  0.75925125     0.43700
H911        H  0.41834036  0.34164922  0.74517209     0.43900
H912        H  0.63007743  0.49100819  0.75080782     0.44200
O913        O  0.79000198  0.47158869  0.97755771    -0.74600
O914        O  0.85152183  0.51527301  0.99463145    -0.53500
C915        C  0.82612657  0.48277066  0.98129608     0.79100
O916        O  0.72157301  0.56430762  0.90097590    -0.59200
O917        O  0.68685022  0.56985676  0.94832205    -0.52300
C918        C  0.69108505  0.56372260  0.91440970     0.71100
O919        O  0.83405198  0.55666256  0.90179193    -0.73800
O920        O  0.87796629  0.56755833  0.94717843    -0.54400
C921        C  0.86503346  0.55756147  0.91432096     0.77100
O922        O  0.67607372  0.46714387  0.48906632    -0.58900
O923        O  0.66089660  0.51474110  0.49692320    -0.52100
C924        C  0.65169763  0.48060620  0.99152299     0.73700
Zr925      Zr  0.74452125  0.49010381  0.49718074     2.54700
O926        O  0.71363296  0.43158871  0.96134289    -0.79500
O927        O  0.72869341  0.44609406  0.54925652    -0.92900
Zr928      Zr  0.78616771  0.57590248  0.92322639     2.64700
O929        O  0.77334896  0.54892761  0.86099676    -0.97900
O930        O  0.81945033  0.63614355  0.88863474    -0.79900
O931        O  0.79657553  0.53326222  0.96050027    -0.83300
O932        O  0.73324328  0.53231828  0.96033868    -2.18000
O933        O  0.71684498  0.55031686  0.60275393    -0.66700
O934        O  0.68375873  0.56019609  0.55666575    -0.51300
C935        C  0.68691604  0.55118838  0.58988255     0.72100
O936        O  0.89544379  0.68179735  0.00605499    -0.59600
O937        O  0.90723726  0.63163734  0.00234369    -0.51600
C938        C  0.91820468  0.66657370  0.50146761     0.73900
O939        O  0.78412625  0.68075516  0.01088841    -0.71000
O940        O  0.72173334  0.63108741  0.00962670    -0.49700
C941        C  0.74830901  0.66691562  0.51204553     0.75300
O942        O  0.83549022  0.55489720  0.60343407    -0.66300
O943        O  0.87733485  0.56378795  0.55647305    -0.53500
C944        C  0.86626338  0.55613704  0.59014037     0.73700
Zr945      Zr  0.78231731  0.56514675  0.58076872     2.77500
O946        O  0.80752764  0.61876109  0.62440143    -0.97100
O947        O  0.76224785  0.52337409  0.63487265    -0.77900
Zr948      Zr  0.82531033  0.65220119  0.00646626     2.70100
O949        O  0.85019545  0.69715285  0.55798019    -0.79100
O950        O  0.84776273  0.69909523  0.95628371    -0.98200
Zr951      Zr  0.84705580  0.57207440  0.00241995     2.21500
Zr952      Zr  0.72266086  0.57123028  0.50228940     2.11100
O953        O  0.77275254  0.60953594  0.54475440    -2.46900
O954        O  0.83663935  0.60986886  0.54471685    -0.78900
O955        O  0.73087590  0.52681597  0.53950740    -0.71100
O956        O  0.83861149  0.61526594  0.96346922    -2.32100
O957        O  0.79482357  0.52627060  0.53943303    -2.28300
O958        O  0.77390813  0.61565345  0.96413244    -0.72900
H959        H  0.71141040  0.51635307  0.94473111     0.79100
H960        H  0.86153637  0.63139433  0.94910495     0.80200
H961        H  0.76528842  0.62393025  0.56093481     0.82400
H962        H  0.80093294  0.50874468  0.55217897     0.80000
H963        H  0.79834874  0.63949042  0.87825966     0.43100
H964        H  0.82419738  0.69251708  0.94182430     0.42000
H965        H  0.86649711  0.68948659  0.57217561     0.41700
H966        H  0.80585854  0.60662432  0.64867780     0.39600
H967        H  0.75597785  0.49766103  0.62519970     0.42800
H968        H  0.71023398  0.42024450  0.53913276     0.37600
H969        H  0.71044630  0.44012656  0.93657866     0.43700
H970        H  0.74981810  0.52313984  0.86336875     0.40100
H971        H  0.83561748  0.63380284  0.61908583     0.45000
H972        H  0.71280129  0.45239996  0.56572936     0.43700
H973        H  0.76494768  0.56458250  0.84669488     0.43900
H974        H  0.85470534  0.72402191  0.96834318     0.44200
O975        O  0.67942976  0.20999557  0.97096797    -0.74600
O976        O  0.66063214  0.14865659  0.98954909    -0.53500
C977        C  0.65400726  0.17419603  0.97552100     0.79100
O978        O  0.84268117  0.27452467  0.90015410    -0.59200
O979        O  0.88147522  0.31033896  0.94795314    -0.52300
C980        C  0.87216920  0.30546877  0.91376219     0.71100
O981        O  0.72211602  0.16057304  0.90088530    -0.73800
O982        O  0.68866537  0.11689757  0.94642361    -0.54400
C983        C  0.69223525  0.12930692  0.91331713     0.77100
O984        O  0.79047148  0.32284282  0.48367263    -0.58900
O985        O  0.85329339  0.33812764  0.49107028    -0.52100
C986        C  0.82525923  0.34607327  0.98201110     0.73700
Zr987      Zr  0.74413653  0.25479759  0.49409831     2.54700
O988        O  0.71418588  0.28597406  0.95995542    -0.79500
O989        O  0.71523965  0.27586767  0.54133006    -0.92900
Zr990      Zr  0.78854778  0.21006164  0.92270387     2.64700
O991        O  0.77580914  0.22257708  0.85986270    -0.97900
O992        O  0.81685140  0.17618779  0.89123434    -0.79900
O993        O  0.73452349  0.20111000  0.95781390    -0.83300
O994        O  0.79661075  0.26368010  0.95772053    -2.18000
O995        O  0.83174469  0.28174873  0.60273874    -0.66700
O996        O  0.87353823  0.31547746  0.55606255    -0.51300
C997        C  0.86226279  0.31170201  0.58964796     0.72100
O998        O  0.78191261  0.10480805  0.02031563    -0.59600
O999        O  0.71977577  0.09155492  0.01259974    -0.51600
C1000       C  0.74544233  0.08136156  0.51793064     0.73900
O1001       O  0.89320887  0.21516847  0.01284573    -0.71000
O1002       O  0.90549995  0.27744118  0.01252322    -0.49700
C1003       C  0.91653103  0.25138277  0.51527210     0.75300
O1004       O  0.71538046  0.16617345  0.60336980    -0.66300
O1005       O  0.68198956  0.12419130  0.55669487    -0.53500
C1006       C  0.68542346  0.13569870  0.59020079     0.73700
Zr1007     Zr  0.77917457  0.21806490  0.57991167     2.77500
O1008       O  0.80232975  0.19135689  0.62735478    -0.97100
O1009       O  0.75704606  0.24336258  0.62965939    -0.77900
Zr1010     Zr  0.82365489  0.17350604  0.00909882     2.70100
O1011       O  0.84857375  0.14728363  0.55543746    -0.79100
O1012       O  0.84474438  0.14431830  0.96221416    -0.98200
Zr1013     Zr  0.72091908  0.15131749  0.00131423     2.21500
Zr1014     Zr  0.84581418  0.27649632  0.00205720     2.11100
O1015       O  0.83425578  0.22714037  0.54598527    -2.46900
O1016       O  0.77246982  0.16957197  0.54132178    -0.78900
O1017       O  0.79363996  0.26937112  0.53785479    -0.71100
O1018       O  0.77399006  0.15857530  0.96494222    -2.32100
O1019       O  0.72835387  0.20522844  0.53786315    -2.28300
O1020       O  0.83933035  0.22394251  0.96551374    -0.72900
H1021       H  0.80276531  0.28456423  0.94077475     0.79100
H1022       H  0.76738335  0.13491494  0.95190375     0.80200
H1023       H  0.85586097  0.23491018  0.56255939     0.82400
H1024       H  0.70462497  0.19966388  0.55011288     0.80000
H1025       H  0.79441205  0.15303190  0.88041837     0.43100
H1026       H  0.86300855  0.16630895  0.94662005     0.42000
H1027       H  0.85733034  0.16625905  0.57591218     0.41700
H1028       H  0.78984501  0.16342022  0.62144956     0.39600
H1029       H  0.73318676  0.24205584  0.62006089     0.42800
H1030       H  0.73101901  0.27971866  0.56369621     0.37600
H1031       H  0.72024366  0.28431303  0.93373770     0.43700
H1032       H  0.77670909  0.24781425  0.86114117     0.40100
H1033       H  0.83006163  0.20171376  0.62166755     0.45000
H1034       H  0.68987942  0.25273228  0.54679904     0.43700
H1035       H  0.79908692  0.22781985  0.84554376     0.43900
H1036       H  0.86133089  0.13654050  0.97575584     0.44200
O1037       O  0.31981251  0.78918970  0.97159734    -0.74600
O1038       O  0.33814770  0.84998912  0.99163580    -0.53500
C1039       C  0.34505653  0.82499048  0.97683686     0.79100
O1040       O  0.15710190  0.72468745  0.89901634    -0.59200
O1041       O  0.11839312  0.68767865  0.94634535    -0.52300
C1042       C  0.12781077  0.69334843  0.91224580     0.71100
O1043       O  0.27745557  0.83777049  0.90167665    -0.73800
O1044       O  0.31081290  0.88060801  0.94781455    -0.54400
C1045       C  0.30753243  0.86852340  0.91459659     0.77100
O1046       O  0.21039514  0.67581774  0.47972931    -0.58900
O1047       O  0.14760019  0.65932315  0.48971767    -0.52100
C1048       C  0.17359611  0.65199116  0.97939291     0.73700
Zr1049     Zr  0.25504246  0.74327648  0.49368070     2.54700
O1050       O  0.28575262  0.71251723  0.96000587    -0.79500
O1051       O  0.28117130  0.72560615  0.54611991    -0.92900
Zr1052     Zr  0.21066026  0.78875046  0.92287747     2.64700
O1053       O  0.22407239  0.77850651  0.85947265    -0.97900
O1054       O  0.18179981  0.82320963  0.89363659    -0.79900
O1055       O  0.26449756  0.79723523  0.95793609    -0.83300
O1056       O  0.20221402  0.73460461  0.95702247    -2.18000
O1057       O  0.16626407  0.71329643  0.60094635    -0.66700
O1058       O  0.12287640  0.68174472  0.55467208    -0.51300
C1059       C  0.13481714  0.68440351  0.58793078     0.72100
O1060       O  0.21613590  0.89309012  0.01685795    -0.59600
O1061       O  0.27846897  0.90594495  0.01292143    -0.51600
C1062       C  0.25171747  0.91598271  0.51777437     0.73900
O1063       O  0.10464786  0.78272747  0.00738672    -0.71000
O1064       O  0.09213894  0.72055771  0.00256119    -0.49700
C1065       C  0.08163555  0.74610075  0.50160971     0.75300
O1066       O  0.28152139  0.83109623  0.60328016    -0.66300
O1067       O  0.31609391  0.87299482  0.55682993    -0.53500
C1068       C  0.31174850  0.86163534  0.59043369     0.73700
Zr1069     Zr  0.21844681  0.77771878  0.57959910     2.77500
O1070       O  0.19080057  0.80011538  0.62676443    -0.97100
O1071       O  0.24228689  0.75269171  0.62794111    -0.77900
Zr1072     Zr  0.17446355  0.82376912  0.01036166     2.70100
O1073       O  0.14863026  0.84116503  0.56234829    -0.79100
O1074       O  0.15273115  0.85712531  0.96905893    -0.98200
Zr1075     Zr  0.27729762  0.84610176  0.00230130     2.21500
Zr1076     Zr  0.15216326  0.72061453  0.50059692     2.11100
O1077       O  0.16376306  0.76911554  0.54499829    -2.46900
O1078       O  0.22750816  0.83302288  0.54603727    -0.78900
O1079       O  0.20479310  0.72728840  0.53677083    -0.71100
O1080       O  0.22436355  0.83914558  0.96614141    -2.32100
O1081       O  0.26961005  0.79233150  0.53740113    -2.28300
O1082       O  0.15991892  0.77449528  0.96572262    -0.72900
H1083       H  0.19634305  0.71418940  0.93958086     0.79100
H1084       H  0.23101275  0.86293916  0.95337923     0.80200
H1085       H  0.14163062  0.76086819  0.56100952     0.82400
H1086       H  0.29329218  0.79796981  0.54978211     0.80000
H1087       H  0.20297654  0.84345901  0.87859880     0.43100
H1088       H  0.13673746  0.83749725  0.95033331     0.42000
H1089       H  0.16837679  0.84779932  0.58183736     0.41700
H1090       H  0.16748354  0.77634264  0.63542242     0.39600
H1091       H  0.26158099  0.74793792  0.61540681     0.42800
H1092       H  0.30414106  0.72529235  0.53620040     0.37600
H1093       H  0.28447234  0.71843839  0.93367251     0.43700
H1094       H  0.22666335  0.75509704  0.86054067     0.40100
H1095       H  0.20919378  0.80784533  0.64765958     0.45000
H1096       H  0.26203028  0.69804838  0.55079550     0.43700
H1097       H  0.19973584  0.77032188  0.84571725     0.43900
H1098       H  0.13397334  0.86085113  0.98386067     0.44200
O1099       O  0.56289328  0.83853169  0.90140973    -0.74600
O1100       O  0.57252235  0.88190422  0.94711630    -0.53500
C1101       C  0.56392655  0.86961776  0.91389701     0.79100
O1102       O  0.46897324  0.67716926  0.48581302    -0.59200
O1103       O  0.51591465  0.66161297  0.49608177    -0.52300
C1104       C  0.48093438  0.65373395  0.98915805     0.71100
O1105       O  0.47220373  0.79115831  0.97324857    -0.73800
O1106       O  0.51501369  0.85275055  0.99101302    -0.54400
C1107       C  0.48294875  0.82719786  0.97695471     0.77100
O1108       O  0.56754788  0.72393012  0.90131903    -0.58900
O1109       O  0.57158225  0.68886901  0.94915029    -0.52100
C1110       C  0.56645249  0.69320672  0.91500329     0.73700
Zr1111     Zr  0.57855699  0.78847381  0.92413126     2.54700
O1112       O  0.54943617  0.77214272  0.86294455    -0.79500
O1113       O  0.64049087  0.82068379  0.89215454    -0.92900
Zr1114     Zr  0.49072351  0.74545558  0.49578968     2.64700
O1115       O  0.42843602  0.71581743  0.96506687    -0.97900
O1116       O  0.44697950  0.73022591  0.54802332    -0.79900
O1117       O  0.53437194  0.79816336  0.95986642    -0.83300
O1118       O  0.53351752  0.73540515  0.96010205    -2.18000
O1119       O  0.68107266  0.78613343  0.01381909    -0.66700
O1120       O  0.63088561  0.72318960  0.51043997    -0.51300
C1121       C  0.66686249  0.74857134  0.51311235     0.72100
O1122       O  0.55274328  0.83529623  0.60391988    -0.59600
O1123       O  0.55970196  0.87615316  0.55663293    -0.51600
C1124       C  0.55276697  0.86537531  0.59040376     0.73900
O1125       O  0.54901371  0.71706493  0.60327390    -0.71000
O1126       O  0.56004670  0.68455862  0.55737766    -0.49700
C1127       C  0.55061692  0.68751327  0.59051980     0.75300
O1128       O  0.67955038  0.89642782  0.01775700    -0.66300
O1129       O  0.62958278  0.90837952  0.01292750    -0.53500
C1130       C  0.66539660  0.91848242  0.51762700     0.73700
Zr1131     Zr  0.65239933  0.82707048  0.00975282     2.77500
O1132       O  0.69735103  0.84766187  0.56171849    -0.97100
O1133       O  0.70463409  0.85559242  0.96470009    -0.77900
Zr1134     Zr  0.56263579  0.78198017  0.58127626     2.70100
O1135       O  0.61333191  0.80595369  0.62795536    -0.79100
O1136       O  0.51566654  0.76226127  0.63124330    -0.98200
Zr1137     Zr  0.57143844  0.84840334  0.00256314     2.21500
Zr1138     Zr  0.57164303  0.72369075  0.50299488     2.11100
O1139       O  0.60842870  0.77295007  0.54681926    -2.46900
O1140       O  0.60814904  0.83641957  0.54623580    -0.78900
O1141       O  0.61699792  0.77617221  0.96636676    -0.71100
O1142       O  0.52542294  0.79533995  0.53868513    -2.32100
O1143       O  0.61644571  0.84058883  0.96570700    -2.28300
O1144       O  0.52582163  0.73092417  0.53912700    -0.72900
H1145       H  0.51826675  0.71391588  0.94387253     0.79100
H1146       H  0.50745146  0.80118614  0.55092336     0.80200
H1147       H  0.62224761  0.76506006  0.56329418     0.82400
H1148       H  0.63317232  0.86405860  0.95227923     0.80000
H1149       H  0.44106266  0.70406410  0.55590850     0.43100
H1150       H  0.49235997  0.73903265  0.62169946     0.42000
H1151       H  0.63120775  0.83320782  0.62088865     0.41700
H1152       H  0.68807127  0.82451543  0.57763195     0.39600
H1153       H  0.70182282  0.83335674  0.95006478     0.42800
H1154       H  0.64504105  0.84697795  0.88681219     0.37600
H1155       H  0.52128296  0.76017782  0.86757971     0.43700
H1156       H  0.43263455  0.70502873  0.94204488     0.40100
H1157       H  0.72200290  0.85168466  0.55118798     0.45000
H1158       H  0.63509223  0.80782099  0.86775354     0.43700
H1159       H  0.41094597  0.69291570  0.98010078     0.43900
H1160       H  0.52573075  0.75237247  0.65085185     0.46000
O1161       O  0.20673424  0.52531199  0.96893527    -0.74600
O1162       O  0.14603567  0.48311477  0.98926816    -0.53500
C1163       C  0.17093808  0.51476178  0.97403048     0.79100
O1164       O  0.27237857  0.42730517  0.89947325    -0.59200
O1165       O  0.30833302  0.42464746  0.94726868    -0.52300
C1166       C  0.30341467  0.42891922  0.91306853     0.71100
O1167       O  0.15836726  0.43463358  0.90095866    -0.73800
O1168       O  0.11474926  0.42446507  0.94649718    -0.54400
C1169       C  0.12732320  0.43380684  0.91345677     0.77100
O1170       O  0.32110563  0.52846253  0.48419940    -0.58900
O1171       O  0.33657790  0.48148528  0.49470248    -0.52100
C1172       C  0.34448905  0.51664596  0.98632990     0.73700
Zr1173     Zr  0.25276471  0.50688075  0.49371842     2.54700
O1174       O  0.28431601  0.56195597  0.94994305    -0.79500
O1175       O  0.26690879  0.55319821  0.54345398    -0.92900
Zr1176     Zr  0.20759082  0.41652837  0.92193873     2.64700
O1177       O  0.21842957  0.43960473  0.85834130    -0.97900
O1178       O  0.17502822  0.35399387  0.89098377    -0.79900
O1179       O  0.19831624  0.46158078  0.95657697    -0.83300
O1180       O  0.26179857  0.46231291  0.95648211    -2.18000
O1181       O  0.28135449  0.45086771  0.60312149    -0.66700
O1182       O  0.31380854  0.43940665  0.55744508    -0.51300
C1183       C  0.31094650  0.44926580  0.59044438     0.72100
O1184       O  0.10134655  0.31819467  0.01426826    -0.59600
O1185       O  0.08932905  0.36826605  0.01234906    -0.51600
C1186       C  0.07951646  0.33176070  0.51802737     0.73900
O1187       O  0.21150820  0.31713213  0.01398741    -0.71000
O1188       O  0.27447588  0.36669901  0.51166787    -0.49700
C1189       C  0.24884009  0.33093668  0.51574840     0.75300
O1190       O  0.16285527  0.44691625  0.60256279    -0.66300
O1191       O  0.12233962  0.44008409  0.55497843    -0.53500
C1192       C  0.13294199  0.44710227  0.58880460     0.73700
Zr1193     Zr  0.21647817  0.43690175  0.58069110     2.77500
O1194       O  0.19240225  0.38623728  0.62733015    -0.97100
O1195       O  0.23770932  0.48479193  0.62991297    -0.77900
Zr1196     Zr  0.17098326  0.34623692  0.00937504     2.70100
O1197       O  0.15071471  0.30134131  0.56293263    -0.79100
O1198       O  0.14440251  0.29503127  0.96313854    -0.98200
Zr1199     Zr  0.14948269  0.42610914  0.00115225     2.21500
Zr1200     Zr  0.27445504  0.42619067  0.50294580     2.11100
O1201       O  0.22536506  0.39054003  0.54719048    -2.46900
O1202       O  0.16165719  0.39036748  0.54668399    -0.78900
O1203       O  0.26739487  0.47275220  0.53804627    -0.71100
O1204       O  0.15590695  0.38004332  0.96436891    -2.32100
O1205       O  0.20305981  0.47310693  0.53710932    -2.28300
O1206       O  0.22119494  0.37982169  0.96530352    -0.72900
H1207       H  0.28330044  0.47744704  0.94022809     0.79100
H1208       H  0.13218401  0.36299188  0.95142243     0.80200
H1209       H  0.23323785  0.37701540  0.56405881     0.82400
H1210       H  0.19728191  0.49133866  0.54890339     0.80000
H1211       H  0.19583374  0.34783334  0.88640498     0.43100
H1212       H  0.16721649  0.29526144  0.95207545     0.42000
H1213       H  0.16352114  0.31795078  0.58464645     0.41700
H1214       H  0.20496332  0.39991043  0.65051291     0.39600
H1215       H  0.25462736  0.50976140  0.61740628     0.42800
H1216       H  0.25435886  0.56808338  0.53564218     0.37600
H1217       H  0.27649590  0.55079056  0.92487776     0.43700
H1218       H  0.24109420  0.46610584  0.85958955     0.40100
H1219       H  0.16482091  0.37859369  0.63043805     0.45000
H1220       H  0.29499995  0.57174601  0.54120697     0.43700
H1221       H  0.22795521  0.42418411  0.84526930     0.43900
H1222       H  0.13144548  0.27075245  0.97763988     0.44200
O1223       O  0.43992892  0.16100547  0.90328884    -0.74600
O1224       O  0.42761665  0.11691654  0.94889838    -0.53500
C1225       C  0.43793559  0.12956299  0.91599016     0.79100
O1226       O  0.52705485  0.32127604  0.48892620    -0.59200
O1227       O  0.47986788  0.33650784  0.49886020    -0.52300
C1228       C  0.51425891  0.34503953  0.99235144     0.71100
O1229       O  0.52772937  0.21067177  0.98001194    -0.73800
O1230       O  0.48423086  0.14805350  0.99389311    -0.54400
C1231       C  0.51699671  0.17454548  0.98187470     0.77100
O1232       O  0.43311296  0.27487571  0.90138022    -0.58900
O1233       O  0.42780525  0.30963705  0.94887529    -0.52100
C1234       C  0.43383168  0.30547945  0.91489849     0.73700
Zr1235     Zr  0.42295985  0.21076568  0.92426615     2.54700
O1236       O  0.45883572  0.23048967  0.86638257    -0.79500
O1237       O  0.36535158  0.17853635  0.88578808    -0.92900
Zr1238     Zr  0.50614616  0.25379629  0.00226134     2.64700
O1239       O  0.57146041  0.28667002  0.97649802    -0.97900
O1240       O  0.54441594  0.27188937  0.55665977    -0.79900
O1241       O  0.46547887  0.20157501  0.96307239    -0.83300
O1242       O  0.46482434  0.26340316  0.96253655    -2.18000
O1243       O  0.31540002  0.21160494  0.01012695    -0.66700
O1244       O  0.36479115  0.27404737  0.00880737    -0.51300
C1245       C  0.32897037  0.24824622  0.51332492     0.72100
O1246       O  0.44063815  0.16086076  0.60448080    -0.59600
O1247       O  0.43606223  0.12116701  0.55699512    -0.51600
C1248       C  0.44178239  0.13130683  0.59099420     0.73900
O1249       O  0.44375644  0.27931681  0.60323341    -0.71000
O1250       O  0.43397719  0.31260147  0.55732081    -0.49700
C1251       C  0.44282932  0.30929941  0.59052432     0.75300
O1252       O  0.31736891  0.10105035  0.01360974    -0.66300
O1253       O  0.36790986  0.08971734  0.01231089    -0.53500
C1254       C  0.33163745  0.07919658  0.51585552     0.73700
Zr1255     Zr  0.34418362  0.17021965  0.00524307     2.77500
O1256       O  0.29466168  0.14394727  0.55409835    -0.97100
O1257       O  0.29966683  0.14583340  0.95311828    -0.77900
Zr1258     Zr  0.42967796  0.21373414  0.58159554     2.70100
O1259       O  0.37482490  0.18747481  0.62380956    -0.79100
O1260       O  0.46999492  0.23103494  0.63674172    -0.98200
Zr1261     Zr  0.42602260  0.15013693  0.00369106     2.21500
Zr1262     Zr  0.42395388  0.27351362  0.00353022     2.11100
O1263       O  0.38548466  0.22359132  0.54564067    -2.46900
O1264       O  0.39073395  0.16658348  0.54047264    -0.78900
O1265       O  0.38148484  0.22210473  0.96368128    -0.71100
O1266       O  0.47011530  0.20231303  0.54128319    -2.32100
O1267       O  0.38266754  0.15736426  0.96357960    -2.28300
O1268       O  0.46841491  0.26639548  0.54177112    -0.72900
H1269       H  0.48050727  0.28507247  0.94667777     0.79100
H1270       H  0.48779217  0.19654613  0.55419939     0.80200
H1271       H  0.37076112  0.23069854  0.56175773     0.82400
H1272       H  0.36700774  0.13411264  0.94941985     0.80000
H1273       H  0.57070427  0.27828712  0.54872193     0.43100
H1274       H  0.49383703  0.25542010  0.63025357     0.42000
H1275       H  0.35804439  0.16039018  0.61559209     0.41700
H1276       H  0.30228738  0.16521958  0.57212436     0.39600
H1277       H  0.27366417  0.13106813  0.96446385     0.42800
H1278       H  0.37539335  0.17949827  0.86057942     0.37600
H1279       H  0.48441127  0.25269883  0.87312502     0.43700
H1280       H  0.56976717  0.29945285  0.95371331     0.40100
H1281       H  0.27111482  0.14119291  0.54208678     0.45000
H1282       H  0.35531617  0.19675686  0.88506172     0.43700
H1283       H  0.58714001  0.30817282  0.99375619     0.43900
H1284       H  0.45673995  0.23871470  0.65516731     0.44200
C1285       C  0.29779150  0.31791311  0.54159486    -0.12700
C1286       C  0.26351381  0.30449643  0.52150995     0.09500
C1287       C  0.24667582  0.26824482  0.50401431    -0.12700
C1288       C  0.26647669  0.24753741  0.50341680    -0.12700
C1289       C  0.30287192  0.26326732  0.52041869     0.09500
C1290       C  0.31721689  0.29737454  0.54119877    -0.12700
H1291       H  0.31065309  0.34541199  0.55600257     0.13400
H1292       H  0.21994509  0.25747770  0.48864413     0.13400
H1293       H  0.25489352  0.22102597  0.48755031     0.13400
H1294       H  0.34477823  0.30941686  0.55537865     0.13400
C1295       C  0.44777791  0.58469149  0.00563584    -0.12700
C1296       C  0.45314147  0.61402630  0.98104322     0.09500
C1297       C  0.42693023  0.60672291  0.95238328    -0.12700
C1298       C  0.39251061  0.57205019  0.95159181    -0.12700
C1299       C  0.38444575  0.54485029  0.97948384     0.09500
C1300       C  0.41301751  0.54972253  0.00487917    -0.12700
H1301       H  0.46826261  0.59031045  0.02770817     0.13400
H1302       H  0.43144421  0.62920050  0.93286243     0.13400
H1303       H  0.37068027  0.56802666  0.93148069     0.13400
H1304       H  0.40684742  0.52857700  0.02642530     0.13400
C1305       C  0.30129050  0.97827827  0.54354148    -0.12700
C1306       C  0.26661958  0.95728049  0.52391727     0.09500
C1307       C  0.24974509  0.97680898  0.50670830    -0.12700
C1308       C  0.26955886  0.01730622  0.50616029    -0.12700
C1309       C  0.30610590  0.03800947  0.52284210     0.09500
C1310       C  0.32083731  0.01831579  0.54306041    -0.12700
H1311       H  0.31435372  0.96368283  0.55762148     0.13400
H1312       H  0.22371150  0.96044623  0.99124878     0.13400
H1313       H  0.25819786  0.03171693  0.99051371     0.13400
H1314       H  0.34863617  0.03392312  0.55682490     0.13400
C1315       C  0.18298492  0.60700063  0.94061861    -0.12700
C1316       C  0.16132244  0.61276249  0.96770476     0.09500
C1317       C  0.13318556  0.58136409  0.98791009    -0.12700
C1318       C  0.13204293  0.54598357  0.98601024    -0.12700
C1319       C  0.15908809  0.54257193  0.96392578     0.09500
C1320       C  0.18175310  0.57177677  0.93861240    -0.12700
H1321       H  0.20382541  0.63085218  0.92383536     0.13400
H1322       H  0.11566750  0.58538451  0.00834354     0.13400
H1323       H  0.11380211  0.52335735  0.00525834     0.13400
H1324       H  0.20188853  0.56905587  0.92049589     0.13400
C1325       C  0.41534148  0.86519014  0.48668732    -0.12700
C1326       C  0.38481301  0.83697594  0.96691227     0.09500
C1327       C  0.39179150  0.81574608  0.94024768    -0.12700
C1328       C  0.42696243  0.81669031  0.93993706    -0.12700
C1329       C  0.45500919  0.83867140  0.96644031     0.09500
C1330       C  0.45046922  0.86564015  0.48676052    -0.12700
H1331       H  0.41106212  0.88331198  0.50618833     0.13400
H1332       H  0.36883426  0.79553452  0.92226133     0.13400
H1333       H  0.43057226  0.79708131  0.92183933     0.13400
H1334       H  0.47259962  0.88407308  0.50634219     0.13400
C1335       C  0.67480218  0.97960597  0.54265418    -0.12700
C1336       C  0.69076209  0.95961038  0.52492870     0.09500
C1337       C  0.72851370  0.97999653  0.51072031    -0.12700
C1338       C  0.74835779  0.02050109  0.51072427    -0.12700
C1339       C  0.73024874  0.04022324  0.52493841     0.09500
C1340       C  0.69439308  0.01957375  0.54267681    -0.12700
H1341       H  0.64607290  0.96427722  0.55465758     0.13400
H1342       H  0.74130092  0.96482068  0.49725232     0.13400
H1343       H  0.77630186  0.03617111  0.49728833     0.13400
H1344       H  0.68046300  0.03434987  0.55475336     0.13400
C1345       C  0.01778800  0.32003752  0.54397144    -0.12700
C1346       C  0.03827814  0.30575000  0.52445230     0.09500
C1347       C  0.01826094  0.26934637  0.50728878    -0.12700
C1348       C  0.97775052  0.24947598  0.50631599    -0.12700
C1349       C  0.95759182  0.26616802  0.52253706     0.09500
C1350       C  0.97775654  0.30040974  0.54300244    -0.12700
H1351       H  0.03282786  0.34765345  0.55813538     0.13400
H1352       H  0.03381460  0.25785997  0.49231267     0.13400
H1353       H  0.96246919  0.22281370  0.49071200     0.13400
H1354       H  0.96256419  0.31314826  0.55657323     0.13400
C1355       C  0.58335153  0.13464011  0.49147048    -0.12700
C1356       C  0.61427317  0.16313699  0.96643713     0.09500
C1357       C  0.60751223  0.18633096  0.94198500    -0.12700
C1358       C  0.57309110  0.18677789  0.94408878    -0.12700
C1359       C  0.54531504  0.16388396  0.97045924     0.09500
C1360       C  0.54853722  0.13482007  0.49242332    -0.12700
H1361       H  0.58798885  0.11688542  0.51111005     0.13400
H1362       H  0.63028197  0.20700479  0.92412348     0.13400
H1363       H  0.56975571  0.20763999  0.92768565     0.13400
H1364       H  0.52685951  0.11713420  0.51268211     0.13400
C1365       C  0.97955858  0.68185807  0.97507665    -0.12700
C1366       C  0.95967153  0.69243489  0.49674580     0.09500
C1367       C  0.98016610  0.72706694  0.51669211    -0.12700
C1368       C  0.02069563  0.74668470  0.51675835    -0.12700
C1369       C  0.04028031  0.73135838  0.49702324     0.09500
C1370       C  0.01953758  0.69881279  0.47454246    -0.12700
H1371       H  0.96407327  0.65669805  0.95745771     0.13400
H1372       H  0.96501293  0.73740980  0.53389238     0.13400
H1373       H  0.03650717  0.77210942  0.53392983     0.13400
H1374       H  0.03414824  0.68957749  0.95857718     0.13400
C1375       C  0.74929884  0.72919757  0.50065447    -0.12700
C1376       C  0.73315969  0.69294656  0.51802102     0.09500
C1377       C  0.69898068  0.67895284  0.53845137    -0.12700
C1378       C  0.67896452  0.69886051  0.53858720    -0.12700
C1379       C  0.69287046  0.73322606  0.51844639     0.09500
C1380       C  0.72904224  0.74945459  0.50087377    -0.12700
H1381       H  0.77589492  0.74040084  0.48497922     0.13400
H1382       H  0.68664553  0.65146564  0.55280468     0.13400
H1383       H  0.65151955  0.68636930  0.55303877     0.13400
H1384       H  0.74018852  0.77615138  0.48539181     0.13400
C1385       C  0.81589131  0.42673426  0.94486689    -0.12700
C1386       C  0.83800870  0.45512015  0.97103173     0.09500
C1387       C  0.86493543  0.45138518  0.99294396    -0.12700
C1388       C  0.86444637  0.41627284  0.99341534    -0.12700
C1389       C  0.83712172  0.38555420  0.97192460     0.09500
C1390       C  0.81532645  0.39182900  0.94542071    -0.12700
H1391       H  0.79582789  0.42982420  0.92697849     0.13400
H1392       H  0.88264938  0.47345386  0.01289169     0.13400
H1393       H  0.88182959  0.41174624  0.01359990     0.13400
H1394       H  0.79491391  0.36846490  0.92789506     0.13400
C1395       C  0.60312771  0.42635514  0.95590262    -0.12700
C1396       C  0.61169797  0.45270719  0.98471324     0.09500
C1397       C  0.58326268  0.44791032  0.01024218    -0.12700
C1398       C  0.54787285  0.41359868  0.01006598    -0.12700
C1399       C  0.54177413  0.38485534  0.98440844     0.09500
C1400       C  0.56795761  0.39240682  0.95562910    -0.12700
H1401       H  0.62491793  0.43043764  0.93571134     0.13400
H1402       H  0.58988927  0.46850109  0.03245528     0.13400
H1403       H  0.52748172  0.40775017  0.03229235     0.13400
H1404       H  0.56291372  0.37034159  0.93538012     0.13400
C1405       C  0.46247675  0.37163440  0.63259418    -0.12600
C1406       C  0.45346805  0.34262043  0.61434611    -0.14200
C1407       C  0.45497186  0.36888972  0.87393416    -0.12600
C1408       C  0.44438246  0.33907633  0.89142713    -0.14200
C1409       C  0.62499428  0.53232535  0.63219241    -0.12600
C1410       C  0.65369120  0.54077310  0.61370474    -0.14200
C1411       C  0.65771395  0.55286134  0.89085382    -0.12600
C1412       C  0.62806430  0.54152787  0.87311930    -0.14200
C1413       C  0.53264823  0.62628432  0.63343097    -0.12600
C1414       C  0.54065906  0.65459168  0.61454580    -0.14200
C1415       C  0.54561114  0.62962977  0.87425641    -0.12600
C1416       C  0.55632109  0.65960518  0.89158689    -0.14200
C1417       C  0.34406873  0.45968525  0.61435150    -0.12600
C1418       C  0.37258656  0.46790309  0.63300241    -0.14200
C1419       C  0.36747574  0.45117992  0.87284622    -0.12600
C1420       C  0.33702169  0.43933399  0.88962383    -0.14200
C1421       C  0.90917038  0.53752723  0.63240554    -0.12600
C1422       C  0.88962406  0.54667713  0.61388345    -0.14200
C1423       C  0.88672136  0.54522092  0.89100472    -0.12600
C1424       C  0.90615916  0.53494921  0.87344765    -0.14200
C1425       C  0.90647951  0.37258068  0.63233666    -0.12600
C1426       C  0.88581891  0.34424032  0.61372562    -0.14200
C1427       C  0.91432107  0.36891213  0.87294211    -0.12600
C1428       C  0.89545718  0.33887480  0.89020397    -0.14200
C1429       C  0.10973631  0.45687653  0.61239160    -0.12600
C1430       C  0.08983901  0.46533497  0.63118629    -0.14200
C1431       C  0.08692249  0.45733744  0.87247779    -0.12600
C1432       C  0.10557512  0.44607016  0.89002662    -0.14200
C1433       C  0.09008112  0.62444415  0.63116339    -0.12600
C1434       C  0.11090473  0.65207573  0.61194078    -0.14200
C1435       C  0.08550996  0.63002552  0.87174088    -0.12600
C1436       C  0.10481447  0.66025832  0.88846743    -0.14200
C1437       C  0.37232731  0.90528451  0.63352130    -0.12600
C1438       C  0.34407121  0.88487711  0.61475861    -0.14200
C1439       C  0.37118153  0.91007050  0.87428272    -0.12600
C1440       C  0.34131200  0.89068609  0.89141789    -0.14200
C1441       C  0.54298209  0.88842855  0.61408604    -0.12600
C1442       C  0.53424256  0.90825608  0.63258722    -0.14200
C1443       C  0.55280391  0.89194396  0.89021365    -0.12600
C1444       C  0.54228693  0.91129085  0.87293716    -0.14200
C1445       C  0.62409049  0.09229275  0.63256161    -0.12600
C1446       C  0.65251636  0.11267564  0.61399725    -0.14200
C1447       C  0.62927144  0.08708492  0.87241049    -0.12600
C1448       C  0.65897139  0.10679972  0.88966682    -0.14200
C1449       C  0.45137519  0.10813744  0.61500375    -0.12600
C1450       C  0.46020064  0.08846906  0.63381397    -0.14200
C1451       C  0.45944366  0.08755211  0.87495311    -0.12600
C1452       C  0.44938926  0.10704807  0.89274335    -0.14200
loop_ 
_geom_bond_atom_site_label_1 
_geom_bond_atom_site_label_2 
_geom_bond_distance 
_geom_bond_site_symmetry_2 
_ccdc_geom_bond_type 
O1          Zr13   2.416       .  S
O1            C3   1.281       .  A
O2          Zr39   2.499   1_545  S
O2            C3   1.302       .  A
C3          C725   1.458       .  S
O4          Zr16   2.427       .  S
O4            C6   1.283       .  A
O5          Zr40   2.468       .  S
O5            C6   1.295       .  A
C6          C711   1.447       .  S
O7          Zr16   2.417       .  S
O7            C9   1.281       .  A
O8          Zr39   2.489       .  S
O8            C9   1.300       .  A
C9          C713   1.452       .  S
O10         Zr13   2.417       .  S
O10          C12   1.282       .  A
O11         Zr40   2.485   1_545  S
O11          C12   1.299       .  A
C12         C724   1.451       .  S
Zr13         O14   2.433       .  S
Zr13         O15   2.437       .  S
Zr13         O19   2.366   1_545  S
Zr13         O20   2.367   1_545  S
Zr13         O43   2.367       .  S
Zr13         O45   2.371       .  S
O14          H57   0.990       .  S
O15          H56   0.990       .  S
O15          H60   0.990       .  S
Zr16         O17   2.435       .  S
Zr16         O18   2.435       .  S
Zr16         O20   2.367       .  S
Zr16         O19   2.369       .  S
Zr16         O44   2.371       .  S
Zr16         O46   2.365       .  S
O17          H58   0.990       .  S
O17          H61   0.990       .  S
O18          H51   0.990       .  S
O19         Zr39   2.392       .  S
O20         Zr40   2.392       .  S
O20          H47   0.966       .  S
O21         Zr33   2.427       .  S
O21          C23   1.284       .  A
O22         Zr40   2.473   1_545  S
O22          C23   1.296       .  A
C23         C719   1.449       .  S
O24         Zr36   2.413       .  S
O24          C26   1.281       .  A
O25         Zr39   2.497       .  S
O25          C26   1.301       .  A
C26         C718   1.455       .  S
O27         Zr36   2.416       .  S
O27          C29   1.282       .  A
O28         Zr40   2.478       .  S
O28          C29   1.297       .  A
C29         C716   1.445       .  S
O30         Zr33   2.414       .  S
O30          C32   1.281       .  A
O31         Zr39   2.491   1_545  S
O31          C32   1.300       .  A
C32         C721   1.454       .  S
Zr33         O34   2.436       .  S
Zr33         O35   2.435       .  S
Zr33         O41   2.367   1_545  S
Zr33         O42   2.368   1_545  S
Zr33         O45   2.372       .  S
Zr33         O43   2.367       .  S
O34          H54   0.990       .  S
O34          H59   0.990       .  S
O35          H55   0.990       .  S
Zr36         O37   2.435       .  S
Zr36         O38   2.436       .  S
Zr36         O42   2.367       .  S
Zr36         O41   2.371       .  S
Zr36         O46   2.367       .  S
Zr36         O44   2.369       .  S
O37          H53   0.990       .  S
O38          H52   0.990       .  S
O38          H62   0.990       .  S
Zr39         O42   2.391       .  S
Zr39         O44   2.402       .  S
Zr39         O45   2.401   1_565  S
Zr40         O41   2.395       .  S
Zr40         O43   2.391   1_565  S
Zr40         O46   2.394       .  S
O41          H49   0.966       .  S
O44          H48   0.966       .  S
O45          H50   0.966       .  S
O63         Zr75   2.410       .  S
O63          C65   1.280       .  A
O64        Zr101   2.496   1_455  S
O64          C65   1.301       .  A
C65         C709   1.453       .  S
O66         Zr78   2.423       .  S
O66          C68   1.283       .  A
O67        Zr102   2.489       .  S
O67          C68   1.299       .  A
C68         C695   1.453       .  S
O69         Zr78   2.415       .  S
O69          C71   1.281       .  A
O70        Zr101   2.500       .  S
O70          C71   1.302       .  A
C71         C698   1.457       .  S
O72         Zr75   2.425       .  S
O72          C74   1.283       .  A
O73        Zr102   2.475   1_455  S
O73          C74   1.297       .  A
C74         C707   1.449       .  S
Zr75         O76   2.433       .  S
Zr75         O77   2.436       .  S
Zr75         O81   2.369   1_455  S
Zr75         O82   2.366   1_455  S
Zr75        O105   2.365       .  S
Zr75        O107   2.370       .  S
O76         H119   0.990       .  S
O77         H118   0.990       .  S
O77         H122   0.990       .  S
Zr78         O79   2.438       .  S
Zr78         O80   2.434       .  S
Zr78         O82   2.367       .  S
Zr78         O81   2.367       .  S
Zr78        O106   2.375       .  S
Zr78        O108   2.369       .  S
O79         H120   0.990       .  S
O79         H123   0.990       .  S
O80         H113   0.990       .  S
O81        Zr101   2.394       .  S
O82        Zr102   2.392       .  S
O82         H109   0.966   1_655  S
O83         Zr95   2.428       .  S
O83          C85   1.283       .  A
O84        Zr102   2.472   1_455  S
O84          C85   1.296       .  A
C85         C704   1.446       .  S
O86         Zr98   2.412       .  S
O86          C88   1.280       .  A
O87        Zr101   2.496       .  S
O87          C88   1.301       .  A
C88         C701   1.456       .  S
O89         Zr98   2.416       .  S
O89          C91   1.281       .  A
O90        Zr102   2.484       .  S
O90          C91   1.298       .  A
C91         C699   1.450       .  S
O92         Zr95   2.424       .  S
O92          C94   1.283       .  A
O93        Zr101   2.499   1_455  S
O93          C94   1.302       .  A
C94         C705   1.461       .  S
Zr95         O96   2.438       .  S
Zr95         O97   2.437       .  S
Zr95        O103   2.374   1_455  S
Zr95        O104   2.369   1_455  S
Zr95        O107   2.371       .  S
Zr95        O105   2.368       .  S
O96         H116   0.990       .  S
O96         H121   0.990       .  S
O97         H117   0.990       .  S
Zr98         O99   2.433       .  S
Zr98        O100   2.435       .  S
Zr98        O104   2.365       .  S
Zr98        O103   2.365       .  S
Zr98        O108   2.371       .  S
Zr98        O106   2.372       .  S
O99         H115   0.990       .  S
O100        H114   0.990       .  S
O100        H124   0.990       .  S
Zr101       O104   2.394       .  S
Zr101       O106   2.402       .  S
Zr101       O107   2.405   1_655  S
Zr102       O103   2.396       .  S
Zr102       O105   2.399   1_655  S
Zr102       O108   2.392       .  S
O103        H111   0.966       .  S
O106        H110   0.966       .  S
O107        H112   0.966       .  S
O125       Zr137   2.424       .  S
O125        C127   1.282       .  A
O126       Zr163   2.497       .  S
O126        C127   1.302       .  A
C127        C693   1.458       .  S
O128       Zr140   2.428       .  S
O128        C130   1.284       .  A
O129       Zr164   2.490       .  S
O129        C130   1.300       .  A
C130        C679   1.459       .  S
O131       Zr140   2.417       .  S
O131        C133   1.281       .  A
O132       Zr163   2.507       .  S
O132        C133   1.304       .  A
C133        C681   1.460       .  S
O134       Zr137   2.430       .  S
O134        C136   1.284       .  A
O135       Zr164   2.484       .  S
O135        C136   1.299       .  A
C136        C692   1.457       .  S
Zr137       O138   2.435       .  S
Zr137       O139   2.436       .  S
Zr137       O143   2.367       .  S
Zr137       O144   2.373       .  S
Zr137       O167   2.367       .  S
Zr137       O169   2.378       .  S
O138        H181   0.990       .  S
O139        H180   0.990       .  S
O139        H184   0.990       .  S
Zr140       O141   2.439       .  S
Zr140       O142   2.434       .  S
Zr140       O144   2.368       .  S
Zr140       O143   2.366       .  S
Zr140       O168   2.379       .  S
Zr140       O170   2.371       .  S
O141        H182   0.990       .  S
O141        H185   0.990       .  S
O142        H175   0.990       .  S
O143       Zr163   2.393       .  S
O144       Zr164   2.399       .  S
O144        H171   0.966       .  S
O145       Zr157   2.421       .  S
O145        C147   1.282       .  A
O146       Zr164   2.488       .  S
O146        C147   1.299       .  A
C147        C687   1.453       .  S
O148       Zr160   2.421       .  S
O148        C150   1.282       .  A
O149       Zr163   2.495       .  S
O149        C150   1.301       .  A
C150        C686   1.459       .  S
O151       Zr160   2.428       .  S
O151        C153   1.283       .  A
O152       Zr164   2.490       .  S
O152        C153   1.300       .  A
C153        C683   1.459       .  S
O154       Zr157   2.417       .  S
O154        C156   1.282       .  A
O155       Zr163   2.504       .  S
O155        C156   1.303       .  A
C156        C689   1.460       .  S
Zr157       O158   2.437       .  S
Zr157       O159   2.435       .  S
Zr157       O165   2.370       .  S
Zr157       O166   2.363       .  S
Zr157       O169   2.377       .  S
Zr157       O167   2.367       .  S
O158        H178   0.990       .  S
O158        H183   0.990       .  S
O159        H179   0.990       .  S
Zr160       O161   2.434       .  S
Zr160       O162   2.434       .  S
Zr160       O166   2.367       .  S
Zr160       O165   2.373       .  S
Zr160       O170   2.367       .  S
Zr160       O168   2.371       .  S
O161        H177   0.990       .  S
O162        H176   0.990       .  S
O162        H186   0.990       .  S
Zr163       O166   2.393       .  S
Zr163       O168   2.405       .  S
Zr163       O169   2.406       .  S
Zr164       O165   2.399       .  S
Zr164       O167   2.395       .  S
Zr164       O170   2.397       .  S
O165        H173   0.966       .  S
O168        H172   0.966       .  S
O169        H174   0.966       .  S
O187       Zr925   2.430       .  S
O187        C189   1.286       .  A
O188       Zr225   2.370       .  S
O188        C189   1.275       .  A
C189        C660   1.449       .  S
O190       Zr202   2.523       .  S
O190        C192   1.302       .  A
O191       Zr952   2.403       .  S
O191        C192   1.280       .  A
C192        C685   1.459       .  S
O193       Zr202   2.517       .  S
O193        C195   1.302       .  A
O194       Zr225   2.400       .  S
O194        C195   1.279       .  A
C195        C697   1.459       .  S
O196       Zr199   2.429       .  S
O196        C924   1.286       .  A
O197       Zr226   2.372   1_556  S
O197        C924   1.274       .  A
C198        O922   1.286       .  A
C198        O923   1.274       .  A
C198        C670   1.439       .  S
Zr199       O913   2.421       .  S
Zr199       O201   2.435   1_556  S
Zr199       O926   2.436       .  S
Zr199       O229   2.362   1_556  S
Zr199       O231   2.359   1_556  S
Zr199       O931   2.359       .  S
Zr199       O932   2.357       .  S
O200       Zr925   2.434       .  S
O200        H243   0.990       .  S
O201        H242   0.990       .  S
O201        H246   0.990       .  S
Zr202       O203   2.437       .  S
Zr202       O204   2.435       .  S
Zr202       O206   2.367       .  S
Zr202       O205   2.366       .  S
Zr202       O230   2.382       .  S
Zr202       O232   2.390       .  S
O203        H244   0.990       .  S
O203        H247   0.990       .  S
O204        H237   0.990       .  S
O205       Zr225   2.372       .  S
O205       Zr925   2.354       .  S
O206       Zr925   2.361       .  S
O206       Zr952   2.386       .  S
O206        H233   0.964       .  S
O207       Zr219   2.507       .  S
O207        C209   1.299       .  A
O208       Zr226   2.407       .  S
O208        C209   1.280       .  A
C209        C684   1.460       .  S
O210       Zr222   2.431       .  S
O210        C938   1.284       .  A
O211       Zr225   2.383       .  S
O211        C938   1.280       .  A
C212        O936   1.284       .  A
C212        O937   1.280       .  A
C212        C640   1.459   1_554  S
O213       Zr222   2.420       .  S
O213        C941   1.282       .  A
O214       Zr952   2.392       .  S
O214        C941   1.282       .  A
C215        O939   1.283       .  A
C215        O940   1.281       .  A
C215        C650   1.458       .  S
O216       Zr219   2.503       .  S
O216        C218   1.298       .  A
O217       Zr951   2.407       .  S
O217        C218   1.280       .  A
C218        C696   1.455       .  S
Zr219       O220   2.433       .  S
Zr219       O221   2.435       .  S
Zr219       O227   2.378       .  S
Zr219       O231   2.378       .  S
Zr219       O229   2.374       .  S
Zr219       O228   2.296       .  S
O220        H240   0.990       .  S
O220        H245   0.990       .  S
O221        H241   0.990       .  S
Zr222       O224   2.436       .  S
Zr222       O949   2.434       .  S
Zr222       O232   2.388       .  S
Zr222       O230   2.380       .  S
Zr222       O954   2.385       .  S
Zr222       O953   2.386       .  S
O223       Zr948   2.435       .  S
O223        H239   0.990       .  S
O224        H238   0.990       .  S
O224        H248   0.990       .  S
Zr225       O943   2.411       .  S
Zr225       O230   2.379       .  S
Zr225       O954   2.369       .  S
Zr225       O957   2.380       .  S
Zr226       O917   2.406   1_554  S
Zr226       O940   2.392       .  S
Zr226       O227   2.380       .  S
Zr226       O229   2.382       .  S
Zr226       O932   2.389   1_554  S
Zr226       O958   2.380   1_554  S
O227       Zr948   2.383       .  S
O227        H235   0.966       .  S
O228       Zr948   2.294       .  S
O228       Zr951   2.271       .  S
O230        H234   0.966       .  S
O231       Zr951   2.386       .  S
O231        H236   0.965       .  S
O232       Zr952   2.377       .  S
O249       Zr987   2.422       .  S
O249        C251   1.285       .  A
O250       Zr287   2.387       .  S
O250        C251   1.277       .  A
C251        C630   1.456       .  S
O252       Zr264   2.525       .  S
O252        C254   1.302       .  A
O253       Zr288   2.404       .  S
O253        C254   1.280       .  A
C254        C702   1.458       .  S
O255       Zr264   2.506       .  S
O255        C257   1.299       .  A
O256       Zr287   2.402       .  S
O256        C257   1.279       .  A
C257        C722   1.455       .  S
O258       Zr261   2.421       .  S
O258        C986   1.285       .  A
O259      Zr1014   2.385   1_556  S
O259        C986   1.277       .  A
C260        O984   1.286       .  A
C260        O985   1.276       .  A
C260        C663   1.445       .  S
Zr261       O975   2.413       .  S
Zr261       O263   2.436   1_556  S
Zr261       O988   2.435       .  S
Zr261       O291   2.358   1_556  S
Zr261       O293   2.359   1_556  S
Zr261       O993   2.363       .  S
Zr261       O994   2.355       .  S
O262       Zr987   2.436       .  S
O262        H305   0.990       .  S
O263        H304   0.990       .  S
O263        H308   0.990       .  S
Zr264       O265   2.439       .  S
Zr264       O266   2.433       .  S
Zr264       O268   2.364       .  S
Zr264       O267   2.371       .  S
Zr264       O292   2.393       .  S
Zr264       O294   2.391       .  S
O265        H306   0.990       .  S
O265        H309   0.990       .  S
O266        H299   0.990       .  S
O267       Zr287   2.375       .  S
O267       Zr987   2.362       .  S
O268       Zr288   2.385       .  S
O268       Zr987   2.351       .  S
O268        H295   0.963       .  S
O269       Zr281   2.486       .  S
O269        C271   1.296       .  A
O270      Zr1014   2.408       .  S
O270        C271   1.280       .  A
C271        C700   1.450       .  S
O272       Zr284   2.423       .  S
O272       C1000   1.282       .  A
O273       Zr287   2.393       .  S
O273       C1000   1.282       .  A
C274        O998   1.283       .  A
C274        O999   1.283       .  A
C274        C613   1.460       .  S
O275       Zr284   2.432       .  S
O275       C1003   1.283       .  A
O276       Zr288   2.393       .  S
O276       C1003   1.281       .  A
C277       O1001   1.282       .  A
C277       O1002   1.281       .  A
C277        C623   1.455       .  S
O278       Zr281   2.489       .  S
O278        C280   1.296       .  A
O279      Zr1013   2.411       .  S
O279        C280   1.281       .  A
C280        C720   1.449       .  S
Zr281       O282   2.437       .  S
Zr281       O283   2.434       .  S
Zr281       O289   2.381       .  S
Zr281       O290   2.380       .  S
Zr281       O293   2.378       .  S
Zr281       O291   2.379       .  S
O282        H302   0.990       .  S
O282        H307   0.990       .  S
O283        H303   0.990       .  S
Zr284       O286   2.435       .  S
Zr284      O1011   2.436       .  S
Zr284       O294   2.382       .  S
Zr284       O292   2.381       .  S
Zr284      O1015   2.383       .  S
Zr284      O1016   2.292       .  S
O285      Zr1010   2.434       .  S
O285        H301   0.990       .  S
O286        H300   0.990       .  S
O286        H310   0.990       .  S
Zr287      O1005   2.410       .  S
Zr287       O292   2.385       .  S
Zr287      O1019   2.385       .  S
Zr287      O1016   2.269       .  S
Zr288       O985   2.381       .  S
Zr288       O996   2.406       .  S
Zr288       O294   2.383       .  S
Zr288      O1015   2.383       .  S
Zr288      O1017   2.384       .  S
O289      Zr1010   2.383       .  S
O289      Zr1014   2.377       .  S
O289        H297   0.966       .  S
O290      Zr1010   2.381       .  S
O290      Zr1013   2.368       .  S
O291      Zr1014   2.376       .  S
O292        H296   0.966       .  S
O293      Zr1013   2.380       .  S
O293        H298   0.966       .  S
O311      Zr1049   2.422       .  S
O311        C313   1.285       .  A
O312       Zr349   2.388       .  S
O312        C313   1.278       .  A
C313        C600   1.456       .  S
O314       Zr326   2.530       .  S
O314        C316   1.304       .  A
O315      Zr1076   2.387       .  S
O315        C316   1.277       .  A
C316        C710   1.453       .  S
O317       Zr326   2.507       .  S
O317        C319   1.300       .  A
O318       Zr349   2.398       .  S
O318        C319   1.279       .  A
C319        C714   1.454       .  S
O320       Zr323   2.427       .  S
O320       C1048   1.286       .  A
O321       Zr350   2.388   1_556  S
O321       C1048   1.278       .  A
C322       O1046   1.285       .  A
C322       O1047   1.278       .  A
C322        C590   1.449       .  S
Zr323      O1037   2.424       .  S
Zr323       O325   2.433   1_556  S
Zr323      O1050   2.437       .  S
Zr323       O353   2.365   1_556  S
Zr323       O355   2.356   1_556  S
Zr323      O1055   2.362       .  S
Zr323      O1056   2.357       .  S
O324      Zr1049   2.435       .  S
O324        H367   0.990       .  S
O325        H366   0.990       .  S
O325        H370   0.990       .  S
Zr326       O327   2.436       .  S
Zr326       O328   2.434       .  S
Zr326       O330   2.363       .  S
Zr326       O329   2.368       .  S
Zr326       O354   2.389       .  S
Zr326       O356   2.380       .  S
O327        H368   0.990       .  S
O327        H371   0.990       .  S
O328        H361   0.990       .  S
O329       Zr349   2.376       .  S
O329      Zr1049   2.360       .  S
O330      Zr1049   2.356       .  S
O330      Zr1076   2.385       .  S
O330        H357   0.963       .  S
O331       Zr343   2.487       .  S
O331        C333   1.296       .  A
O332       Zr350   2.409       .  S
O332        C333   1.281       .  A
C333        C708   1.450       .  S
O334       Zr346   2.426       .  S
O334       C1062   1.283       .  A
O335       Zr349   2.402       .  S
O335       C1062   1.283       .  A
C336       O1060   1.282       .  A
C336       O1061   1.282       .  A
C336        C580   1.457       .  S
O337       Zr346   2.424       .  S
O337       C1065   1.282       .  A
O338      Zr1076   2.392       .  S
O338       C1065   1.282       .  A
C339       O1063   1.283       .  A
C339       O1064   1.282       .  A
C339        C643   1.460   1_554  S
O340       Zr343   2.493       .  S
O340        C342   1.297       .  A
O341      Zr1075   2.404       .  S
O341        C342   1.280       .  A
C342        C712   1.448       .  S
Zr343       O344   2.434       .  S
Zr343       O345   2.435       .  S
Zr343       O351   2.385       .  S
Zr343       O352   2.378       .  S
Zr343       O355   2.380       .  S
Zr343       O353   2.382       .  S
O344        H364   0.990       .  S
O344        H369   0.990       .  S
O345        H365   0.990       .  S
Zr346       O348   2.436       .  S
Zr346      O1073   2.435       .  S
Zr346       O356   2.381       .  S
Zr346       O354   2.380       .  S
Zr346      O1078   2.381       .  S
Zr346      O1077   2.386       .  S
O347      Zr1072   2.436       .  S
O347        H363   0.990       .  S
O348        H362   0.990       .  S
O348        H372   0.990       .  S
Zr349      O1067   2.404       .  S
Zr349       O354   2.380       .  S
Zr349      O1078   2.368       .  S
Zr349      O1081   2.381       .  S
Zr350      O1041   2.395   1_554  S
Zr350      O1064   2.397       .  S
Zr350       O351   2.377       .  S
Zr350       O353   2.381       .  S
Zr350      O1056   2.388   1_554  S
Zr350      O1082   2.377   1_554  S
O351      Zr1072   2.382       .  S
O351        H359   0.966       .  S
O352      Zr1072   2.378       .  S
O352      Zr1075   2.369       .  S
O354        H358   0.966       .  S
O355      Zr1075   2.380       .  S
O355        H360   0.965       .  S
O356      Zr1076   2.378       .  S
O373       Zr385   2.514       .  S
O373        C375   1.301       .  A
O374       Zr411   2.398       .  S
O374        C375   1.279       .  A
C375        C717   1.456       .  S
O376       Zr388   2.421       .  S
O376       C1104   1.285       .  A
O377       Zr412   2.373   1_556  S
O377       C1104   1.274       .  A
C378       O1102   1.287       .  A
C378       O1103   1.274       .  A
C378        C570   1.444       .  S
O379      Zr1114   2.427       .  S
O379        C381   1.286       .  A
O380       Zr411   2.389       .  S
O380        C381   1.278       .  A
C381        C603   1.457       .  S
O382       Zr385   2.518       .  S
O382        C384   1.302       .  A
O383      Zr1138   2.409       .  S
O383        C384   1.281       .  A
C384        C690   1.460       .  S
Zr385       O386   2.434       .  S
Zr385       O387   2.436       .  S
Zr385       O391   2.368       .  S
Zr385       O392   2.373       .  S
Zr385       O415   2.387       .  S
Zr385       O417   2.386       .  S
O386        H429   0.990       .  S
O387        H428   0.990       .  S
O387        H432   0.990       .  S
Zr388      O1105   2.425       .  S
Zr388       O390   2.436   1_556  S
Zr388      O1115   2.438       .  S
Zr388       O416   2.349   1_556  S
Zr388       O418   2.361   1_556  S
Zr388      O1118   2.363       .  S
Zr388      O1117   2.358       .  S
O389      Zr1114   2.437       .  S
O389        H430   0.990       .  S
O389        H433   0.990       .  S
O390        H423   0.990       .  S
O391       Zr411   2.372       .  S
O391      Zr1114   2.362       .  S
O392      Zr1114   2.358       .  S
O392      Zr1138   2.387       .  S
O392        H419   0.963       .  S
O393       Zr405   2.428       .  S
O393       C1121   1.283       .  A
O394       Zr412   2.391       .  S
O394        C395   1.281       .  A
C395       O1119   1.282       .  A
C395        C653   1.455       .  S
O396       Zr408   2.484       .  S
O396        C398   1.295       .  A
O397      Zr1137   2.410       .  S
O397        C398   1.281       .  A
C398        C715   1.446       .  S
O399       Zr408   2.499       .  S
O399        C401   1.297       .  A
O400       Zr412   2.400       .  S
O400        C401   1.279       .  A
C401        C688   1.453       .  S
O402       Zr405   2.427       .  S
O402       C1130   1.283       .  A
O403       Zr411   2.386       .  S
O403       C1130   1.281       .  A
C404       O1128   1.284       .  A
C404       O1129   1.280       .  A
C404        C610   1.461       .  S
Zr405       O407   2.434       .  S
Zr405      O1132   2.437       .  S
Zr405       O417   2.384       .  S
Zr405       O415   2.384       .  S
Zr405      O1139   2.384       .  S
Zr405      O1140   2.382       .  S
O406      Zr1131   2.437       .  S
O406        H426   0.990       .  S
O406        H431   0.990       .  S
O407        H427   0.990       .  S
Zr408       O409   2.434       .  S
Zr408       O410   2.433       .  S
Zr408       O414   2.384       .  S
Zr408       O413   2.379       .  S
Zr408       O418   2.370       .  S
Zr408       O416   2.382       .  S
O409        H425   0.990       .  S
O410        H424   0.990       .  S
O410        H434   0.990       .  S
Zr411      O1123   2.407       .  S
Zr411       O417   2.382       .  S
Zr411      O1140   2.370       .  S
Zr411      O1142   2.378       .  S
Zr412      O1109   2.405   1_554  S
Zr412       O413   2.376       .  S
Zr412       O418   2.378       .  S
Zr412      O1118   2.385   1_554  S
Zr412      O1141   2.374   1_554  S
O413      Zr1131   2.384       .  S
O413        H421   0.966       .  S
O414      Zr1131   2.376       .  S
O414      Zr1137   2.367       .  S
O415      Zr1138   2.377       .  S
O416      Zr1137   2.381       .  S
O416        H420   0.965       .  S
O417        H422   0.966       .  S
O435      Zr1173   2.424       .  S
O435        C437   1.286       .  A
O436       Zr473   2.376       .  S
O436        C437   1.277       .  A
C437        C593   1.452       .  S
O438       Zr450   2.522       .  S
O438        C440   1.301       .  A
O439      Zr1200   2.405       .  S
O439        C440   1.280       .  A
C440        C694   1.458       .  S
O441       Zr450   2.524       .  S
O441        C443   1.303       .  A
O442       Zr473   2.401       .  S
O442        C443   1.280       .  A
C443        C706   1.462       .  S
O444       Zr447   2.419       .  S
O444       C1172   1.285       .  A
O445       Zr474   2.376   1_556  S
O445       C1172   1.275       .  A
C446       O1170   1.288       .  A
C446       O1171   1.274       .  A
C446        C573   1.444       .  S
Zr447      O1161   2.418       .  S
Zr447       O449   2.433   1_556  S
Zr447      O1174   2.437       .  S
Zr447       O477   2.364   1_556  S
Zr447       O479   2.361   1_556  S
Zr447      O1179   2.357       .  S
Zr447      O1180   2.354       .  S
O448      Zr1173   2.435       .  S
O448        H491   0.990       .  S
O449        H490   0.990       .  S
O449        H494   0.990       .  S
Zr450       O451   2.440       .  S
Zr450       O452   2.435       .  S
Zr450       O454   2.373       .  S
Zr450       O453   2.364       .  S
Zr450       O478   2.389       .  S
Zr450       O480   2.388       .  S
O451        H492   0.990       .  S
O451        H495   0.990       .  S
O452        H485   0.990       .  S
O453       Zr473   2.377       .  S
O453      Zr1173   2.361       .  S
O454      Zr1173   2.355       .  S
O454      Zr1200   2.389       .  S
O454        H481   0.963       .  S
O455       Zr467   2.493       .  S
O455        C457   1.296       .  A
O456       Zr474   2.415       .  S
O456        C457   1.281       .  A
C457        C691   1.458       .  S
O458       Zr470   2.420       .  S
O458       C1186   1.282       .  A
O459       Zr473   2.398       .  S
O459       C1186   1.282       .  A
C460       O1184   1.282       .  A
C460       O1185   1.280       .  A
C460        C620   1.456       .  S
O461       Zr470   2.414       .  S
O461       C1189   1.280       .  A
O462       Zr474   2.392       .  S
O462        C463   1.282       .  A
C463       O1187   1.282       .  A
C463        C560   1.458       .  S
O464       Zr467   2.483       .  S
O464        C466   1.295       .  A
O465      Zr1199   2.409       .  S
O465        C466   1.280       .  A
C466        C703   1.447       .  S
Zr467       O468   2.433       .  S
Zr467       O469   2.435       .  S
Zr467       O475   2.377       .  S
Zr467       O479   2.380       .  S
Zr467       O477   2.371       .  S
Zr467       O476   2.294       .  S
O468        H488   0.990       .  S
O468        H493   0.990       .  S
O469        H489   0.990       .  S
Zr470       O472   2.433       .  S
Zr470      O1197   2.434       .  S
Zr470       O480   2.384       .  S
Zr470       O478   2.381       .  S
Zr470      O1202   2.381       .  S
Zr470      O1201   2.383       .  S
O471      Zr1196   2.433       .  S
O471        H487   0.990       .  S
O472        H486   0.990       .  S
O472        H496   0.990       .  S
Zr473      O1191   2.407       .  S
Zr473       O478   2.380       .  S
Zr473      O1202   2.368       .  S
Zr473      O1205   2.382       .  S
Zr474      O1165   2.401   1_554  S
Zr474       O475   2.377       .  S
Zr474       O477   2.376       .  S
Zr474      O1180   2.390   1_554  S
Zr474      O1206   2.382   1_554  S
O475      Zr1196   2.385       .  S
O475        H483   0.966       .  S
O476      Zr1196   2.288       .  S
O476      Zr1199   2.267       .  S
O478        H482   0.966       .  S
O479      Zr1199   2.381       .  S
O479        H484   0.966       .  S
O480      Zr1200   2.378       .  S
O497       Zr509   2.512       .  S
O497        C499   1.301       .  A
O498       Zr535   2.405       .  S
O498        C499   1.280       .  A
C499        C726   1.460       .  S
O500      Zr1238   2.424   1_556  S
O500       C1228   1.284       .  A
O501      Zr1262   2.373   1_556  S
O501       C1228   1.274       .  A
C502       O1226   1.285       .  A
C502       O1227   1.274       .  A
C502        C673   1.439       .  S
O503       Zr512   2.423       .  S
O503        C505   1.285       .  A
O504       Zr535   2.384       .  S
O504        C505   1.277       .  A
C505        C633   1.453       .  S
O506       Zr509   2.522       .  S
O506        C508   1.303       .  A
O507       Zr536   2.410       .  S
O507        C508   1.281       .  A
C508        C682   1.461       .  S
Zr509       O510   2.437       .  S
Zr509       O511   2.433       .  S
Zr509       O515   2.372       .  S
Zr509       O516   2.367       .  S
Zr509       O539   2.393       .  S
Zr509       O541   2.394       .  S
O510        H553   0.990       .  S
O511        H552   0.990       .  S
O511        H556   0.990       .  S
Zr512      O1226   2.425       .  S
Zr512       O513   2.444       .  S
Zr512      O1240   2.436       .  S
Zr512       O516   2.361       .  S
Zr512       O515   2.366       .  S
Zr512      O1266   2.355       .  S
Zr512      O1268   2.359       .  S
O513        H554   0.990       .  S
O513        H557   0.990       .  S
O514      Zr1238   2.435       .  S
O514        H547   0.990       .  S
O515       Zr535   2.372       .  S
O516       Zr536   2.385       .  S
O516        H543   0.963       .  S
O517       Zr529   2.437       .  S
O517       C1245   1.284       .  A
O518       Zr536   2.385       .  S
O518       C1245   1.280       .  A
C519       O1243   1.285       .  A
C519       O1244   1.279       .  A
C519        C563   1.461       .  S
O520       Zr532   2.505       .  S
O520        C522   1.299       .  A
O521      Zr1261   2.404       .  S
O521        C522   1.279       .  A
C522        C723   1.453       .  S
O523       Zr532   2.510       .  S
O523        C525   1.299       .  A
O524      Zr1262   2.404       .  S
O524        C525   1.279       .  A
C525        C680   1.460       .  S
O526       Zr529   2.425       .  S
O526       C1254   1.282       .  A
O527       Zr535   2.387       .  S
O527       C1254   1.280       .  A
C528       O1252   1.283       .  A
C528       O1253   1.280       .  A
C528        C583   1.458       .  S
Zr529       O531   2.435       .  S
Zr529      O1256   2.436       .  S
Zr529       O541   2.386       .  S
Zr529       O539   2.387       .  S
Zr529      O1263   2.381       .  S
Zr529      O1264   2.289       .  S
O530      Zr1255   2.438       .  S
O530        H550   0.990       .  S
O530        H555   0.990       .  S
O531        H551   0.990       .  S
Zr532       O533   2.434       .  S
Zr532       O534   2.437       .  S
Zr532       O537   2.380       .  S
Zr532       O542   2.374       .  S
Zr532       O540   2.382       .  S
Zr532       O538   2.292       .  S
O533        H549   0.990       .  S
O534        H548   0.990       .  S
O534        H558   0.990       .  S
Zr535      O1247   2.409       .  S
Zr535       O541   2.384       .  S
Zr535      O1266   2.383       .  S
Zr535      O1264   2.268       .  S
Zr536      O1227   2.374       .  S
Zr536      O1250   2.401       .  S
Zr536       O539   2.382       .  S
Zr536      O1263   2.383       .  S
Zr536      O1268   2.382       .  S
O537      Zr1255   2.384       .  S
O537      Zr1262   2.386       .  S
O537        H545   0.966       .  S
O538      Zr1255   2.293       .  S
O538      Zr1261   2.271       .  S
O540      Zr1238   2.356       .  S
O540      Zr1261   2.384       .  S
O540        H544   0.965       .  S
O541        H546   0.966       .  S
O542      Zr1238   2.357       .  S
O542      Zr1262   2.381       .  S
C559        C560   1.398       .  A
C559        C564   1.381       .  A
C559        H565   1.084       .  S
C560        C561   1.405       .  A
C561        C562   1.401       .  A
C561        H566   1.083   1_554  S
C562        C563   1.403       .  A
C562        H567   1.083   1_554  S
C563        C564   1.402       .  A
C564        H568   1.084       .  S
C569        C570   1.401       .  A
C569        C574   1.392       .  A
C569        H575   1.084       .  S
C570        C571   1.398       .  A
C571        C572   1.382       .  A
C571        H576   1.084       .  S
C572        C573   1.398       .  A
C572        H577   1.084       .  S
C573        C574   1.401       .  A
C574        H578   1.084       .  S
C579        C580   1.399       .  A
C579        C584   1.383   1_565  A
C579        H585   1.084       .  S
C580        C581   1.404       .  A
C581        C582   1.398   1_565  A
C581       H1312   1.083   1_554  S
C582        C583   1.403       .  A
C582       H1313   1.083   1_554  S
C583        C584   1.401       .  A
C584        H588   1.084       .  S
H586       C1307   1.083       .  S
H587       C1308   1.083       .  S
C589        C590   1.401       .  A
C589        C594   1.383       .  A
C589        H595   1.084       .  S
C590        C591   1.399       .  A
C591        C592   1.390       .  A
C591        H596   1.083       .  S
C592        C593   1.404       .  A
C592        H597   1.083       .  S
C593        C594   1.400       .  A
C594        H598   1.084       .  S
C599        C604   1.390       .  A
C599       C1326   1.402       .  A
C599        H605   1.083   1_556  S
C600        C601   1.401       .  A
C600       C1325   1.402       .  A
C601        C602   1.384       .  A
C601        H606   1.084       .  S
C602        C603   1.401       .  A
C602        H607   1.084       .  S
C603       C1330   1.403       .  A
C604       C1329   1.401       .  A
C604        H608   1.084   1_556  S
C609        C610   1.402       .  A
C609        C614   1.383   1_565  A
C609        H615   1.084       .  S
C610        C611   1.403       .  A
C611        C612   1.399   1_565  A
C611        H616   1.083   1_554  S
C612        C613   1.404       .  A
C612        H617   1.083       .  S
C613        C614   1.400       .  A
C614        H618   1.084       .  S
C619        C620   1.400       .  A
C619        C624   1.383   1_455  A
C619        H625   1.084       .  S
C620        C621   1.403       .  A
C621        C622   1.397   1_455  A
C621        H626   1.083   1_554  S
C622        C623   1.403       .  A
C622        H627   1.083   1_554  S
C623        C624   1.400       .  A
C624        H628   1.084       .  S
C629        C634   1.391       .  A
C629       C1356   1.402       .  A
C629        H635   1.083   1_556  S
C630        C631   1.401       .  A
C630       C1355   1.403       .  A
C631        C632   1.384       .  A
C631        H636   1.084       .  S
C632        C633   1.400       .  A
C632        H637   1.084       .  S
C633       C1360   1.402       .  A
C634       C1359   1.400       .  A
C634        H638   1.083   1_556  S
C639       C1366   1.401       .  A
C639       C1370   1.379   1_655  A
C639        H645   1.084       .  S
C640        C641   1.403   1_556  A
C640       C1365   1.401       .  A
C641        C642   1.401   1_655  A
C641        H646   1.083       .  S
C642        C643   1.405   1_554  A
C642        H647   1.083       .  S
C643        C644   1.399       .  A
C644       C1365   1.381   1_455  A
C644       H1374   1.084       .  S
H648       C1370   1.084       .  S
C649        C650   1.404       .  A
C649        C654   1.399       .  A
C649        H655   1.083   1_554  S
C650        C651   1.400       .  A
C651        C652   1.381       .  A
C651        H656   1.084       .  S
C652        C653   1.399       .  A
C652        H657   1.084       .  S
C653        C654   1.403       .  A
C654        H658   1.083   1_554  S
C659        C660   1.399       .  A
C659        C664   1.382       .  A
C659        H665   1.084       .  S
C660        C661   1.403       .  A
C661        C662   1.390       .  A
C661        H666   1.083       .  S
C662        C663   1.398       .  A
C662        H667   1.084       .  S
C663        C664   1.400       .  A
C664        H668   1.084       .  S
C669        C670   1.397       .  A
C669        C674   1.379       .  A
C669        H675   1.084       .  S
C670        C671   1.400       .  A
C671        C672   1.391       .  A
C671        H676   1.084       .  S
C672        C673   1.400       .  A
C672        H677   1.084       .  S
C673        C674   1.398       .  A
C674        H678   1.084       .  S
C679        C680   1.221       .  T
C681        C682   1.222       .  T
C683        C684   1.221       .  T
C685        C686   1.221       .  T
C687        C688   1.217       .  T
C689        C690   1.222       .  T
C691        C692   1.220       .  T
C693        C694   1.221       .  T
C695        C696   1.218       .  T
C697        C698   1.221       .  T
C699        C700   1.215       .  T
C701        C702   1.220       .  T
C703        C704   1.213       .  T
C705        C706   1.223       .  T
C707        C708   1.215       .  T
C709        C710   1.218       .  T
C711        C712   1.214       .  T
C713        C714   1.218       .  T
C715        C716   1.213       .  T
C717        C718   1.219       .  T
C719        C720   1.215       .  T
C721        C722   1.218       .  T
C723        C724   1.217       .  T
C725        C726   1.221       .  T
O727       Zr739   2.421       .  S
O727        C729   1.283       .  A
O728       Zr765   2.497   1_545  S
O728        C729   1.302       .  A
C729       C1451   1.459       .  S
O730       Zr742   2.425       .  S
O730        C732   1.283       .  A
O731       Zr766   2.478       .  S
O731        C732   1.297       .  A
C732       C1437   1.450       .  S
O733       Zr742   2.412       .  S
O733        C735   1.281       .  A
O734       Zr765   2.488       .  S
O734        C735   1.300       .  A
C735       C1439   1.451       .  S
O736       Zr739   2.423       .  S
O736        C738   1.283       .  A
O737       Zr766   2.484   1_545  S
O737        C738   1.298       .  A
C738       C1450   1.452       .  S
Zr739       O740   2.435       .  S
Zr739       O741   2.436       .  S
Zr739       O745   2.368   1_545  S
Zr739       O746   2.368   1_545  S
Zr739       O769   2.368       .  S
Zr739       O771   2.374       .  S
O740        H783   0.990       .  S
O741        H782   0.990       .  S
O741        H786   0.990       .  S
Zr742       O743   2.437       .  S
Zr742       O744   2.435       .  S
Zr742       O746   2.367       .  S
Zr742       O745   2.369       .  S
Zr742       O770   2.370       .  S
Zr742       O772   2.365       .  S
O743        H784   0.990       .  S
O743        H787   0.990       .  S
O744        H777   0.990       .  S
O745       Zr765   2.394       .  S
O746       Zr766   2.392       .  S
O746        H773   0.966       .  S
O747       Zr759   2.419       .  S
O747        C749   1.282       .  A
O748       Zr766   2.481   1_545  S
O748        C749   1.298       .  A
C749       C1445   1.449       .  S
O750       Zr762   2.414       .  S
O750        C752   1.281       .  A
O751       Zr765   2.499       .  S
O751        C752   1.302       .  A
C752       C1444   1.456       .  S
O753       Zr762   2.417       .  S
O753        C755   1.282       .  A
O754       Zr766   2.476       .  S
O754        C755   1.297       .  A
C755       C1442   1.445       .  S
O756       Zr759   2.409       .  S
O756        C758   1.280       .  A
O757       Zr765   2.489   1_545  S
O757        C758   1.300       .  A
C758       C1447   1.451       .  S
Zr759       O760   2.435       .  S
Zr759       O761   2.435       .  S
Zr759       O767   2.366   1_545  S
Zr759       O768   2.364   1_545  S
Zr759       O771   2.370       .  S
Zr759       O769   2.369       .  S
O760        H780   0.990       .  S
O760        H785   0.990       .  S
O761        H781   0.990       .  S
Zr762       O763   2.434       .  S
Zr762       O764   2.435       .  S
Zr762       O768   2.364       .  S
Zr762       O767   2.369       .  S
Zr762       O772   2.368       .  S
Zr762       O770   2.369       .  S
O763        H779   0.990       .  S
O764        H778   0.990       .  S
O764        H788   0.990       .  S
Zr765       O768   2.389       .  S
Zr765       O770   2.401       .  S
Zr765       O771   2.400   1_565  S
Zr766       O767   2.396       .  S
Zr766       O769   2.392   1_565  S
Zr766       O772   2.394       .  S
O767        H775   0.966   1_565  S
O770        H774   0.966       .  S
O771        H776   0.966       .  S
O789       Zr801   2.410       .  S
O789        C791   1.280       .  A
O790       Zr827   2.498   1_455  S
O790        C791   1.302       .  A
C791       C1435   1.454       .  S
O792       Zr804   2.424       .  S
O792        C794   1.282       .  A
O793       Zr828   2.476       .  S
O793        C794   1.297       .  A
C794       C1421   1.449       .  S
O795       Zr804   2.419       .  S
O795        C797   1.282       .  A
O796       Zr827   2.501       .  S
O796        C797   1.302       .  A
C797       C1424   1.458       .  S
O798       Zr801   2.426       .  S
O798        C800   1.283       .  A
O799       Zr828   2.469   1_455  S
O799        C800   1.295       .  A
C800       C1433   1.447       .  S
Zr801       O802   2.434       .  S
Zr801       O803   2.436       .  S
Zr801       O807   2.371   1_455  S
Zr801       O808   2.364   1_455  S
Zr801       O831   2.366       .  S
Zr801       O833   2.374       .  S
O802        H845   0.990       .  S
O803        H844   0.990       .  S
O803        H848   0.990       .  S
Zr804       O805   2.438       .  S
Zr804       O806   2.434       .  S
Zr804       O808   2.368       .  S
Zr804       O807   2.371       .  S
Zr804       O832   2.374       .  S
Zr804       O834   2.367       .  S
O805        H846   0.990       .  S
O805        H849   0.990       .  S
O806        H839   0.990       .  S
O807       Zr827   2.398       .  S
O808       Zr828   2.395       .  S
O808        H835   0.966       .  S
O809       Zr821   2.426       .  S
O809        C811   1.283       .  A
O810       Zr828   2.474   1_455  S
O810        C811   1.296       .  A
C811       C1430   1.448       .  S
O812       Zr824   2.418       .  S
O812        C814   1.282       .  A
O813       Zr827   2.498       .  S
O813        C814   1.302       .  A
C814       C1427   1.458       .  S
O815       Zr824   2.423       .  S
O815        C817   1.283       .  A
O816       Zr828   2.479       .  S
O816        C817   1.298       .  A
C817       C1425   1.451       .  S
O818       Zr821   2.421       .  S
O818        C820   1.283       .  A
O819       Zr827   2.501   1_455  S
O819        C820   1.303       .  A
C820       C1431   1.461       .  S
Zr821       O822   2.438       .  S
Zr821       O823   2.433       .  S
Zr821       O829   2.369   1_455  S
Zr821       O830   2.366   1_455  S
Zr821       O833   2.373       .  S
Zr821       O831   2.367       .  S
O822        H842   0.990       .  S
O822        H847   0.990       .  S
O823        H843   0.990       .  S
Zr824       O825   2.433       .  S
Zr824       O826   2.435       .  S
Zr824       O830   2.365       .  S
Zr824       O829   2.367       .  S
Zr824       O834   2.368       .  S
Zr824       O832   2.369       .  S
O825        H841   0.990       .  S
O826        H840   0.990       .  S
O826        H850   0.990       .  S
Zr827       O830   2.390       .  S
Zr827       O832   2.402       .  S
Zr827       O833   2.404   1_655  S
Zr828       O829   2.394       .  S
Zr828       O831   2.393   1_655  S
Zr828       O834   2.392       .  S
O829        H837   0.966       .  S
O832        H836   0.966       .  S
O833        H838   0.966       .  S
O851       Zr863   2.419       .  S
O851        C853   1.281       .  A
O852       Zr889   2.501       .  S
O852        C853   1.302       .  A
C853       C1419   1.460       .  S
O854       Zr866   2.427       .  S
O854        C856   1.283       .  A
O855       Zr890   2.490       .  S
O855        C856   1.300       .  A
C856       C1405   1.457       .  S
O857       Zr866   2.423       .  S
O857        C859   1.283       .  A
O858       Zr889   2.496       .  S
O858        C859   1.301       .  A
C859       C1407   1.459       .  S
O860       Zr863   2.426       .  S
O860        C862   1.283       .  A
O861       Zr890   2.485       .  S
O861        C862   1.298       .  A
C862       C1418   1.455       .  S
Zr863       O864   2.433       .  S
Zr863       O865   2.437       .  S
Zr863       O869   2.366       .  S
Zr863       O870   2.370       .  S
Zr863       O893   2.366       .  S
Zr863       O895   2.378       .  S
O864        H907   0.990       .  S
O865        H906   0.990       .  S
O865        H910   0.990       .  S
Zr866       O867   2.436       .  S
Zr866       O868   2.436       .  S
Zr866       O870   2.373       .  S
Zr866       O869   2.366       .  S
Zr866       O894   2.372       .  S
Zr866       O896   2.369       .  S
O867        H908   0.990       .  S
O867        H911   0.990       .  S
O868        H901   0.990       .  S
O869       Zr889   2.390       .  S
O870       Zr890   2.397       .  S
O870        H897   0.966       .  S
O871       Zr883   2.426       .  S
O871        C873   1.283       .  A
O872       Zr890   2.488       .  S
O872        C873   1.299       .  A
C873       C1413   1.455       .  S
O874       Zr886   2.418       .  S
O874        C876   1.282       .  A
O875       Zr889   2.485       .  S
O875        C876   1.299       .  A
C876       C1412   1.451       .  S
O877       Zr886   2.426       .  S
O877        C879   1.283       .  A
O878       Zr890   2.487       .  S
O878        C879   1.299       .  A
C879       C1409   1.456       .  S
O880       Zr883   2.420       .  S
O880        C882   1.282       .  A
O881       Zr889   2.503       .  S
O881        C882   1.303       .  A
C882       C1415   1.461       .  S
Zr883       O884   2.440       .  S
Zr883       O885   2.433       .  S
Zr883       O891   2.369       .  S
Zr883       O892   2.364       .  S
Zr883       O895   2.379       .  S
Zr883       O893   2.371       .  S
O884        H904   0.990       .  S
O884        H909   0.990       .  S
O885        H905   0.990       .  S
Zr886       O887   2.433       .  S
Zr886       O888   2.435       .  S
Zr886       O892   2.367       .  S
Zr886       O891   2.369       .  S
Zr886       O896   2.366       .  S
Zr886       O894   2.374       .  S
O887        H903   0.990       .  S
O888        H902   0.990       .  S
O888        H912   0.990       .  S
Zr889       O892   2.394       .  S
Zr889       O894   2.406       .  S
Zr889       O895   2.403       .  S
Zr890       O891   2.396       .  S
Zr890       O893   2.396       .  S
Zr890       O896   2.397       .  S
O891        H899   0.966       .  S
O894        H898   0.966       .  S
O895        H900   0.966       .  S
O913        C915   1.285       .  A
O914       Zr951   2.377   1_556  S
O914        C915   1.275       .  A
C915       C1386   1.450       .  S
O916       Zr928   2.512       .  S
O916        C918   1.299       .  A
O917        C918   1.280       .  A
C918       C1411   1.453       .  S
O919       Zr928   2.511       .  S
O919        C921   1.300       .  A
O920       Zr951   2.404   1_556  S
O920        C921   1.279       .  A
C921       C1423   1.459       .  S
O922       Zr925   2.425       .  S
O923       Zr952   2.373       .  S
C924       C1396   1.438       .  S
Zr925       O927   2.436       .  S
Zr925       O955   2.364       .  S
Zr925       O957   2.357       .  S
O926        H969   0.990       .  S
O927        H968   0.990       .  S
O927        H972   0.990       .  S
Zr928       O929   2.439       .  S
Zr928       O930   2.433       .  S
Zr928       O932   2.370       .  S
Zr928       O931   2.366       .  S
Zr928       O956   2.383       .  S
Zr928       O958   2.392       .  S
O929        H970   0.990       .  S
O929        H973   0.990       .  S
O930        H963   0.990       .  S
O931       Zr951   2.374   1_556  S
O932        H959   0.964       .  S
O933       Zr945   2.502       .  S
O933        C935   1.298       .  A
O934       Zr952   2.408       .  S
O934        C935   1.280       .  A
C935       C1410   1.457       .  S
O936       Zr948   2.432       .  S
O937       Zr951   2.388       .  S
C938       C1366   1.457       .  S
O939       Zr948   2.428       .  S
C941       C1376   1.455       .  S
O942       Zr945   2.492       .  S
O942        C944   1.296       .  A
O943        C944   1.281       .  A
C944       C1422   1.450       .  S
Zr945       O946   2.435       .  S
Zr945       O947   2.434       .  S
Zr945       O953   2.379       .  S
Zr945       O954   2.391       .  S
Zr945       O957   2.381       .  S
Zr945       O955   2.375       .  S
O946        H966   0.990       .  S
O946        H971   0.990       .  S
O947        H967   0.990       .  S
Zr948       O950   2.436   1_554  S
Zr948       O958   2.385   1_554  S
Zr948       O956   2.379   1_554  S
O949        H965   0.990       .  S
O950        H964   0.990       .  S
O950        H974   0.990       .  S
Zr951       O956   2.378   1_554  S
Zr952       O953   2.375       .  S
Zr952       O955   2.376       .  S
O953        H961   0.966       .  S
O956        H960   0.966       .  S
O957        H962   0.966       .  S
O975        C977   1.283       .  A
O976      Zr1013   2.392   1_556  S
O976        C977   1.279       .  A
C977       C1356   1.455       .  S
O978       Zr990   2.527       .  S
O978        C980   1.303       .  A
O979      Zr1014   2.401   1_556  S
O979        C980   1.280       .  A
C980       C1428   1.459       .  S
O981       Zr990   2.512       .  S
O981        C983   1.301       .  A
O982      Zr1013   2.393   1_556  S
O982        C983   1.278       .  A
C983       C1448   1.452       .  S
O984       Zr987   2.431       .  S
C986       C1389   1.447       .  S
Zr987       O989   2.435       .  S
Zr987      O1017   2.367       .  S
Zr987      O1019   2.362       .  S
O988       H1031   0.990       .  S
O989       H1030   0.990       .  S
O989       H1034   0.990       .  S
Zr990       O991   2.438       .  S
Zr990       O992   2.434       .  S
Zr990       O994   2.366       .  S
Zr990       O993   2.370       .  S
Zr990      O1018   2.389       .  S
Zr990      O1020   2.386       .  S
O991       H1032   0.990       .  S
O991       H1035   0.990       .  S
O992       H1025   0.990       .  S
O993      Zr1013   2.376   1_556  S
O994      Zr1014   2.385   1_556  S
O994       H1021   0.963       .  S
O995      Zr1007   2.491       .  S
O995        C997   1.296       .  A
O996        C997   1.280       .  A
C997       C1426   1.452       .  S
O998      Zr1010   2.425       .  S
O999      Zr1013   2.397       .  S
C1000      C1339   1.459       .  S
O1001     Zr1010   2.422       .  S
O1002     Zr1014   2.393       .  S
C1003      C1349   1.461       .  S
O1004     Zr1007   2.493       .  S
O1004      C1006   1.296       .  A
O1005      C1006   1.280       .  A
C1006      C1446   1.450       .  S
Zr1007     O1008   2.435       .  S
Zr1007     O1009   2.436       .  S
Zr1007     O1015   2.382       .  S
Zr1007     O1019   2.378       .  S
Zr1007     O1017   2.380       .  S
Zr1007     O1016   2.291       .  S
O1008      H1028   0.990       .  S
O1008      H1033   0.990       .  S
O1009      H1029   0.990       .  S
Zr1010     O1012   2.434   1_554  S
Zr1010     O1020   2.382   1_554  S
Zr1010     O1018   2.379   1_554  S
O1011      H1027   0.990       .  S
O1012      H1026   0.990       .  S
O1012      H1036   0.990       .  S
Zr1013     O1018   2.385   1_554  S
Zr1014     O1020   2.381   1_554  S
O1015      H1023   0.965       .  S
O1018      H1022   0.966       .  S
O1019      H1024   0.965       .  S
O1037      C1039   1.285       .  A
O1038     Zr1075   2.385   1_556  S
O1038      C1039   1.278       .  A
C1039      C1326   1.454       .  S
O1040     Zr1052   2.525       .  S
O1040      C1042   1.303       .  A
O1041      C1042   1.278       .  A
C1042      C1436   1.454       .  S
O1043     Zr1052   2.510       .  S
O1043      C1045   1.300       .  A
O1044     Zr1075   2.395   1_556  S
O1044      C1045   1.278       .  A
C1045      C1440   1.453       .  S
O1046     Zr1049   2.423       .  S
O1047     Zr1076   2.392       .  S
C1048      C1316   1.449       .  S
Zr1049     O1051   2.435       .  S
Zr1049     O1079   2.363       .  S
Zr1049     O1081   2.353       .  S
O1050      H1093   0.990       .  S
O1051      H1092   0.990       .  S
O1051      H1096   0.990       .  S
Zr1052     O1053   2.438       .  S
Zr1052     O1054   2.434       .  S
Zr1052     O1056   2.363       .  S
Zr1052     O1055   2.369       .  S
Zr1052     O1080   2.386       .  S
Zr1052     O1082   2.383       .  S
O1053      H1094   0.990       .  S
O1053      H1097   0.990       .  S
O1054      H1087   0.990       .  S
O1055     Zr1075   2.376   1_556  S
O1056      H1083   0.962       .  S
O1057     Zr1069   2.487       .  S
O1057      C1059   1.295       .  A
O1058     Zr1076   2.407       .  S
O1058      C1059   1.280       .  A
C1059      C1434   1.449       .  S
O1060     Zr1072   2.422       .  S
O1061     Zr1075   2.395       .  S
C1062      C1306   1.462       .  S
O1063     Zr1072   2.426       .  S
C1065      C1369   1.458       .  S
O1066     Zr1069   2.498       .  S
O1066      C1068   1.298       .  A
O1067      C1068   1.280       .  A
C1068      C1438   1.450       .  S
Zr1069     O1070   2.432       .  S
Zr1069     O1071   2.433       .  S
Zr1069     O1077   2.387       .  S
Zr1069     O1078   2.383       .  S
Zr1069     O1081   2.377       .  S
Zr1069     O1079   2.377       .  S
O1070      H1090   0.990       .  S
O1070      H1095   0.990       .  S
O1071      H1091   0.990       .  S
Zr1072     O1074   2.433   1_554  S
Zr1072     O1082   2.381   1_554  S
Zr1072     O1080   2.384   1_554  S
O1073      H1089   0.990       .  S
O1074      H1088   0.990       .  S
O1074      H1098   0.990       .  S
Zr1075     O1080   2.380   1_554  S
Zr1076     O1077   2.376       .  S
Zr1076     O1079   2.374       .  S
O1077      H1085   0.966       .  S
O1080      H1084   0.966       .  S
O1081      H1086   0.965       .  S
O1099     Zr1111   2.511       .  S
O1099      C1101   1.301       .  A
O1100     Zr1137   2.401   1_556  S
O1100      C1101   1.280       .  A
C1101      C1443   1.457       .  S
O1102     Zr1114   2.437       .  S
O1103     Zr1138   2.372       .  S
C1104      C1296   1.438       .  S
O1105      C1107   1.285       .  A
O1106     Zr1137   2.380   1_556  S
O1106      C1107   1.277       .  A
C1107      C1329   1.452       .  S
O1108     Zr1111   2.524       .  S
O1108      C1110   1.303       .  A
O1109      C1110   1.280       .  A
C1110      C1416   1.462       .  S
Zr1111     O1112   2.435       .  S
Zr1111     O1113   2.433       .  S
Zr1111     O1117   2.369       .  S
Zr1111     O1118   2.367       .  S
Zr1111     O1141   2.385       .  S
Zr1111     O1143   2.393       .  S
O1112      H1155   0.990       .  S
O1113      H1154   0.990       .  S
O1113      H1158   0.990       .  S
Zr1114     O1116   2.436       .  S
Zr1114     O1142   2.352       .  S
Zr1114     O1144   2.361       .  S
O1115      H1156   0.990       .  S
O1115      H1159   0.990       .  S
O1116      H1149   0.990       .  S
O1117     Zr1137   2.372   1_556  S
O1118      H1145   0.964       .  S
O1119     Zr1131   2.422       .  S
O1120     Zr1138   2.389       .  S
O1120      C1121   1.281       .  A
C1121      C1379   1.457       .  S
O1122     Zr1134   2.488       .  S
O1122      C1124   1.296       .  A
O1123      C1124   1.280       .  A
C1124      C1441   1.446       .  S
O1125     Zr1134   2.496       .  S
O1125      C1127   1.297       .  A
O1126     Zr1138   2.411       .  S
O1126      C1127   1.281       .  A
C1127      C1414   1.456       .  S
O1128     Zr1131   2.432       .  S
O1129     Zr1137   2.386       .  S
C1130      C1336   1.457       .  S
Zr1131     O1133   2.435   1_554  S
Zr1131     O1143   2.381   1_554  S
Zr1131     O1141   2.391   1_554  S
O1132      H1152   0.990       .  S
O1132      H1157   0.990       .  S
O1133      H1153   0.990       .  S
Zr1134     O1135   2.435       .  S
Zr1134     O1136   2.435       .  S
Zr1134     O1140   2.383       .  S
Zr1134     O1139   2.384       .  S
Zr1134     O1144   2.375       .  S
Zr1134     O1142   2.379       .  S
O1135      H1151   0.990       .  S
O1136      H1150   0.990       .  S
O1136      H1160   0.990       .  S
Zr1137     O1143   2.379   1_554  S
Zr1138     O1139   2.376       .  S
Zr1138     O1144   2.380       .  S
O1139      H1147   0.966       .  S
O1142      H1146   0.965       .  S
O1143      H1148   0.966       .  S
O1161      C1163   1.284       .  A
O1162     Zr1199   2.385   1_556  S
O1162      C1163   1.277       .  A
C1163      C1319   1.454       .  S
O1164     Zr1176   2.533       .  S
O1164      C1166   1.304       .  A
O1165      C1166   1.279       .  A
C1166      C1420   1.461       .  S
O1167     Zr1176   2.525       .  S
O1167      C1169   1.303       .  A
O1168     Zr1199   2.399   1_556  S
O1168      C1169   1.279       .  A
C1169      C1432   1.462       .  S
O1170     Zr1173   2.438       .  S
O1171     Zr1200   2.372       .  S
C1172      C1299   1.440       .  S
Zr1173     O1175   2.436       .  S
Zr1173     O1203   2.360       .  S
Zr1173     O1205   2.355       .  S
O1174      H1217   0.990       .  S
O1175      H1216   0.990       .  S
O1175      H1220   0.990       .  S
Zr1176     O1177   2.438       .  S
Zr1176     O1178   2.434       .  S
Zr1176     O1180   2.372       .  S
Zr1176     O1179   2.367       .  S
Zr1176     O1204   2.394       .  S
Zr1176     O1206   2.388       .  S
O1177      H1218   0.990       .  S
O1177      H1221   0.990       .  S
O1178      H1211   0.990       .  S
O1179     Zr1199   2.376   1_556  S
O1180      H1207   0.964       .  S
O1181     Zr1193   2.495       .  S
O1181      C1183   1.298       .  A
O1182     Zr1200   2.411       .  S
O1182      C1183   1.281       .  A
C1183      C1417   1.456       .  S
O1184     Zr1196   2.427       .  S
O1185     Zr1199   2.389       .  S
C1186      C1346   1.459       .  S
O1187     Zr1196   2.422       .  S
O1188     Zr1200   2.395       .  S
O1188      C1189   1.282       .  A
C1189      C1286   1.455       .  S
O1190     Zr1193   2.493       .  S
O1190      C1192   1.297       .  A
O1191      C1192   1.281       .  A
C1192      C1429   1.449       .  S
Zr1193     O1194   2.433       .  S
Zr1193     O1195   2.434       .  S
Zr1193     O1201   2.382       .  S
Zr1193     O1202   2.384       .  S
Zr1193     O1205   2.375       .  S
Zr1193     O1203   2.377       .  S
O1194      H1214   0.990       .  S
O1194      H1219   0.990       .  S
O1195      H1215   0.990       .  S
Zr1196     O1198   2.436   1_554  S
Zr1196     O1206   2.381   1_554  S
Zr1196     O1204   2.378   1_554  S
O1197      H1213   0.990       .  S
O1198      H1212   0.990       .  S
O1198      H1222   0.990       .  S
Zr1199     O1204   2.385   1_554  S
Zr1200     O1201   2.375       .  S
Zr1200     O1203   2.380       .  S
O1201      H1209   0.966       .  S
O1204      H1208   0.966       .  S
O1205      H1210   0.965       .  S
O1223     Zr1235   2.514       .  S
O1223      C1225   1.301       .  A
O1224     Zr1261   2.404   1_556  S
O1224      C1225   1.280       .  A
C1225      C1452   1.461       .  S
C1228      C1399   1.437       .  S
O1229     Zr1238   2.415   1_556  S
O1229      C1231   1.283       .  A
O1230     Zr1261   2.391   1_556  S
O1230      C1231   1.278       .  A
C1231      C1359   1.452       .  S
O1232     Zr1235   2.521       .  S
O1232      C1234   1.302       .  A
O1233     Zr1262   2.409   1_556  S
O1233      C1234   1.281       .  A
C1234      C1408   1.460       .  S
Zr1235     O1236   2.437       .  S
Zr1235     O1237   2.433       .  S
Zr1235     O1241   2.369       .  S
Zr1235     O1242   2.368       .  S
Zr1235     O1265   2.393       .  S
Zr1235     O1267   2.393       .  S
O1236      H1279   0.990       .  S
O1237      H1278   0.990       .  S
O1237      H1282   0.990       .  S
Zr1238     O1239   2.441   1_554  S
Zr1238     O1242   2.360   1_554  S
Zr1238     O1241   2.367   1_554  S
O1239      H1280   0.990       .  S
O1239      H1283   0.990       .  S
O1240      H1273   0.990       .  S
O1241     Zr1261   2.371   1_556  S
O1242     Zr1262   2.384   1_556  S
O1242      H1269   0.963       .  S
O1243     Zr1255   2.444       .  S
O1244     Zr1262   2.378       .  S
C1245      C1289   1.460       .  S
O1246     Zr1258   2.500       .  S
O1246      C1248   1.298       .  A
O1247      C1248   1.281       .  A
C1248      C1449   1.453       .  S
O1249     Zr1258   2.510       .  S
O1249      C1251   1.299       .  A
O1250      C1251   1.279       .  A
C1251      C1406   1.458       .  S
O1252     Zr1255   2.428       .  S
O1253     Zr1261   2.385       .  S
C1254      C1309   1.458       .  S
Zr1255     O1257   2.437   1_554  S
Zr1255     O1267   2.384   1_554  S
Zr1255     O1265   2.384   1_554  S
O1256      H1276   0.990       .  S
O1256      H1281   0.990       .  S
O1257      H1277   0.990       .  S
Zr1258     O1259   2.435       .  S
Zr1258     O1260   2.438       .  S
Zr1258     O1263   2.378       .  S
Zr1258     O1268   2.374       .  S
Zr1258     O1266   2.382       .  S
Zr1258     O1264   2.290       .  S
O1259      H1275   0.990       .  S
O1260      H1274   0.990       .  S
O1260      H1284   0.990       .  S
Zr1261     O1267   2.385   1_554  S
Zr1262     O1265   2.384   1_554  S
O1263      H1271   0.966       .  S
O1266      H1270   0.965       .  S
O1267      H1272   0.966       .  S
C1285      C1286   1.398       .  A
C1285      C1290   1.381       .  A
C1285      H1291   1.084       .  S
C1286      C1287   1.404       .  A
C1287      C1288   1.400       .  A
C1287      H1292   1.083       .  S
C1288      C1289   1.403       .  A
C1288      H1293   1.083       .  S
C1289      C1290   1.402       .  A
C1290      H1294   1.084       .  S
C1295      C1296   1.400   1_554  A
C1295      C1300   1.391       .  A
C1295      H1301   1.084       .  S
C1296      C1297   1.397       .  A
C1297      C1298   1.378       .  A
C1297      H1302   1.084       .  S
C1298      C1299   1.398       .  A
C1298      H1303   1.084       .  S
C1299      C1300   1.401   1_556  A
C1300      H1304   1.084       .  S
C1305      C1306   1.400       .  A
C1305      C1310   1.383   1_565  A
C1305      H1311   1.084       .  S
C1306      C1307   1.405       .  A
C1307      C1308   1.399   1_565  A
C1308      C1309   1.403       .  A
C1309      C1310   1.401       .  A
C1310      H1314   1.084       .  S
C1315      C1316   1.400       .  A
C1315      C1320   1.383       .  A
C1315      H1321   1.084       .  S
C1316      C1317   1.399       .  A
C1317      C1318   1.391       .  A
C1317      H1322   1.083   1_556  S
C1318      C1319   1.403       .  A
C1318      H1323   1.083   1_556  S
C1319      C1320   1.401       .  A
C1320      H1324   1.084       .  S
C1325      C1330   1.392       .  A
C1325      H1331   1.083       .  S
C1326      C1327   1.401       .  A
C1327      C1328   1.385       .  A
C1327      H1332   1.084       .  S
C1328      C1329   1.400       .  A
C1328      H1333   1.084       .  S
C1330      H1334   1.083       .  S
C1335      C1336   1.400       .  A
C1335      C1340   1.381   1_565  A
C1335      H1341   1.084       .  S
C1336      C1337   1.403       .  A
C1337      C1338   1.399   1_565  A
C1337      H1342   1.083       .  S
C1338      C1339   1.405       .  A
C1338      H1343   1.083       .  S
C1339      C1340   1.399       .  A
C1340      H1344   1.084       .  S
C1345      C1346   1.399       .  A
C1345      C1350   1.383   1_455  A
C1345      H1351   1.084       .  S
C1346      C1347   1.404       .  A
C1347      C1348   1.400   1_455  A
C1347      H1352   1.083       .  S
C1348      C1349   1.404       .  A
C1348      H1353   1.083       .  S
C1349      C1350   1.401       .  A
C1350      H1354   1.084       .  S
C1355      C1360   1.393       .  A
C1355      H1361   1.083       .  S
C1356      C1357   1.401       .  A
C1357      C1358   1.384       .  A
C1357      H1362   1.084       .  S
C1358      C1359   1.401       .  A
C1358      H1363   1.084       .  S
C1360      H1364   1.083       .  S
C1365      H1371   1.084       .  S
C1366      C1367   1.403       .  A
C1367      C1368   1.400   1_655  A
C1367      H1372   1.083       .  S
C1368      C1369   1.404       .  A
C1368      H1373   1.083       .  S
C1369      C1370   1.399       .  A
C1375      C1376   1.404       .  A
C1375      C1380   1.400       .  A
C1375      H1381   1.083       .  S
C1376      C1377   1.399       .  A
C1377      C1378   1.379       .  A
C1377      H1382   1.084       .  S
C1378      C1379   1.400       .  A
C1378      H1383   1.084       .  S
C1379      C1380   1.404       .  A
C1380      H1384   1.083       .  S
C1385      C1386   1.400       .  A
C1385      C1390   1.381       .  A
C1385      H1391   1.084       .  S
C1386      C1387   1.402       .  A
C1387      C1388   1.391       .  A
C1387      H1392   1.083   1_556  S
C1388      C1389   1.400       .  A
C1388      H1393   1.083   1_556  S
C1389      C1390   1.400       .  A
C1390      H1394   1.084       .  S
C1395      C1396   1.397       .  A
C1395      C1400   1.379       .  A
C1395      H1401   1.084       .  S
C1396      C1397   1.400   1_556  A
C1397      C1398   1.390       .  A
C1397      H1402   1.084       .  S
C1398      C1399   1.399   1_554  A
C1398      H1403   1.084       .  S
C1399      C1400   1.398       .  A
C1400      H1404   1.084       .  S
C1405      C1406   1.220       .  T
C1407      C1408   1.222       .  T
C1409      C1410   1.219       .  T
C1411      C1412   1.217       .  T
C1413      C1414   1.219       .  T
C1415      C1416   1.223       .  T
C1417      C1418   1.219       .  T
C1419      C1420   1.222       .  T
C1421      C1422   1.215       .  T
C1423      C1424   1.221       .  T
C1425      C1426   1.216       .  T
C1427      C1428   1.221       .  T
C1429      C1430   1.214       .  T
C1431      C1432   1.223       .  T
C1433      C1434   1.214       .  T
C1435      C1436   1.219       .  T
C1437      C1438   1.215       .  T
C1439      C1440   1.217       .  T
C1441      C1442   1.213       .  T
C1443      C1444   1.220       .  T
C1445      C1446   1.215       .  T
C1447      C1448   1.217       .  T
C1449      C1450   1.217       .  T
C1451      C1452   1.222       .  T
