geometry optimzed in LAMMPS
_audit_creation_date              2020-11-30 
_audit_creation_method            'lammps2cif' 
_symmetry_space_group_name_H-M    'P1' 
_symmetry_Int_Tables_number       1 
_symmetry_cell_setting            triclinic 
loop_ 
_symmetry_equiv_pos_as_xyz 
  x,y,z 
_cell_length_a                    36.37694728 
_cell_length_b                    54.8252708653369 
_cell_length_c                    28.868029868593887 
_cell_angle_alpha                 90.03219790968686 
_cell_angle_beta                  89.99619190270977 
_cell_angle_gamma                 89.65844394610035 
loop_ 
_atom_site_label 
_atom_site_type_symbol 
_atom_site_fract_x 
_atom_site_fract_y 
_atom_site_fract_z 
_atom_site_charge 
Zr1        Zr  0.99923441  0.04534509  0.97604093     2.17500
O2          O  0.50064453  0.08621299  0.00915678    -0.51800
O3          O  0.99611908  0.05626852  0.89472572    -0.75000
O4          O  0.06097135  0.06228577  0.96007588    -0.81800
O5          O  0.39626681  0.03548412  0.97349731    -0.83600
O6          O  0.10261308  0.03125299  0.96551199    -0.79200
O7          O  0.43868327  0.06531067  0.96698744    -0.90800
O8          O  0.50094884  0.02172600  0.85166428    -0.76800
O9          O  0.03692775  0.01544646  0.93938062    -0.86300
O10         O  0.46013255  0.01595047  0.94108627    -0.86000
O11         O  0.03578777  0.02801698  0.03755843    -0.72700
O12         O  0.46398614  0.02852963  0.03905387    -0.84900
Zr13       Zr  0.49836317  0.45084849  0.02693896     2.26400
Zr14       Zr  0.07208310  0.99738378  0.99988318     2.06300
Zr15       Zr  0.42533015  0.99899574  0.00299462     2.10000
Zr16       Zr  0.99785106  0.48652999  0.90445344     1.78800
O17         O  0.38579181  0.01331300  0.06552930    -0.93700
O18         O  0.05200323  0.47710657  0.85803441    -0.41500
O19         O  0.46208745  0.46843245  0.96557624    -0.78100
O20         O  0.03399266  0.46740827  0.96414355    -0.96800
O21         O  0.03808533  0.47988165  0.06165257    -0.90100
O22         O  0.46085843  0.48093557  0.06338844    -0.92900
C23         C  0.49885146  0.04513160  0.85575932     1.00800
C24         C  0.40537585  0.05744360  0.96407199     1.13700
C25         C  0.09366122  0.05316162  0.95564028     1.04500
O26         O  0.12173523  0.48338746  0.94965580    -0.95100
O27         O  0.10116692  0.46061684  0.02537071    -0.90800
O28         O  0.05832184  0.43195157  0.04289923    -0.84000
C29         C  0.09158919  0.43978022  0.04081086     1.11200
O30         O  0.50388290  0.04981820  0.13402386    -0.97100
Zr31       Zr  0.00064443  0.00943390  0.09877320     1.88900
O32         O  0.49929285  0.43939832  0.10821858    -0.73700
O33         O  0.11450650  0.01231800  0.05868681    -0.53000
O34         O  0.05649613  0.01353043  0.14467044    -0.97700
O35         O  0.44888154  0.01797572  0.15005857    -0.54900
O36         O  0.00034836  0.47400069  0.15167835    -0.74200
C37         C  0.99993261  0.45056443  0.14733527     0.98100
O38         O  0.49906130  0.41057047  0.99130317    -0.63100
O39         O  0.37614954  0.48781863  0.94997993    -0.57900
O40         O  0.43768523  0.43241371  0.03869922    -0.94500
O41         O  0.39494744  0.46231825  0.02796040    -0.93000
O42         O  0.44217250  0.48184506  0.85854287    -0.93300
O43         O  0.49429055  0.44781639  0.86332669    -0.92100
C44         C  0.40435144  0.44057723  0.03936610     1.17000
H45         H  0.44445284  0.02315320  0.91771722     0.32900
H46         H  0.04900626  0.45465484  0.95070508     0.43700
H47         H  0.44523853  0.47386330  0.08679444     0.37300
H48         H  0.05133597  0.04049360  0.05042222     0.33800
H49         H  0.04546526  0.48232839  0.82628890     0.25500
H50         H  0.13887765  0.00609958  0.04873231     0.31500
H51         H  0.04903054  0.00956618  0.17678268     0.37400
H52         H  0.45077304  0.48090088  0.82604978     0.31800
H53         H  0.35393634  0.49613825  0.96217864     0.30700
H54         H  0.36451716  0.00213781  0.06536446     0.32400
H55         H  0.45813018  0.01422458  0.18154884     0.31400
H56         H  0.00180656  0.43546224  0.88648946     0.35400
H57         H  0.47883158  0.41109524  0.96837748     0.28100
H58         H  0.00677963  0.09700802  0.98283418     0.32300
H59         H  0.00683130  0.04704943  0.16770836     0.35200
H60         H  0.38177429  0.49641524  0.92068819     0.27800
H61         H  0.02168381  0.41023452  0.97222364     0.40700
H62         H  0.11092427  0.47021521  0.93064880     0.30700
H63         H  0.07064743  0.48904537  0.86827486     0.38300
H64         H  0.43076701  0.00503695  0.14356514     0.30200
H65         H  0.11596706  0.03016923  0.05414674     0.30300
H66         H  0.02282082  0.08636584  0.02906356     0.30500
C67         C  0.50234362  0.10006333  0.63913740     0.45000
H68         H  0.50566065  0.08011993  0.63737493    -0.04100
C69         C  0.49822525  0.14703746  0.64321263     0.45000
H70         H  0.49485747  0.16671622  0.64745156    -0.04100
C71         C  0.03424636  0.11302863  0.61316732    -0.17800
C72         C  0.46649047  0.11047441  0.61708463    -0.17500
C73         C  0.00239739  0.10937761  0.69014799    -0.17900
C74         C  0.03172170  0.13840589  0.61366214    -0.17900
C75         C  0.46488437  0.13564252  0.61898962    -0.17400
C76         C  0.50091543  0.13485696  0.69194157    -0.17800
Zr77       Zr  0.50103229  0.29786282  0.01882933     2.17500
O78         O  0.00047255  0.33783534  0.98200357    -0.51800
O79         O  0.50278629  0.31093200  0.09912706    -0.75000
O80         O  0.44149754  0.31712105  0.03630659    -0.81800
O81         O  0.10435347  0.28453328  0.02135390    -0.83600
O82         O  0.39693520  0.28856986  0.02589373    -0.79200
O83         O  0.06296434  0.31546121  0.02702356    -0.90800
O84         O  0.49793142  0.27687115  0.14320632    -0.76800
O85         O  0.46101805  0.26972072  0.05582809    -0.86300
O86         O  0.03809354  0.26793540  0.05624449    -0.86000
O87         O  0.46355244  0.28094515  0.95797100    -0.72700
O88         O  0.03577869  0.27895649  0.95746393    -0.84900
Zr89       Zr  0.49655785  0.20282245  0.97398520     2.26400
Zr90       Zr  0.42481042  0.25208411  0.99610629     2.06300
Zr91       Zr  0.07225907  0.24876907  0.99582313     2.10000
Zr92       Zr  0.49822408  0.24039308  0.09359841     1.78800
O93         O  0.11406684  0.25968691  0.93345208    -0.93700
O94         O  0.44633431  0.23483114  0.14579914    -0.41500
O95         O  0.03369542  0.22003291  0.03463195    -0.78100
O96         O  0.46107279  0.22178597  0.03469188    -0.96800
O97         O  0.45875147  0.23231677  0.93632461    -0.90100
O98         O  0.03599483  0.23104139  0.93626911    -0.92900
C99         C  0.50057047  0.30019374  0.13846699     1.00800
C100        C  0.09594044  0.30673220  0.03004361     1.13700
C101        C  0.40796025  0.30970037  0.03803876     1.04500
O102        O  0.37470147  0.24273838  0.04903370    -0.95100
O103        O  0.39351952  0.21515910  0.97527305    -0.90800
O104        O  0.43551340  0.18508007  0.96099853    -0.84000
C105        C  0.40239424  0.19354107  0.96257475     1.11200
O106        O  0.99787290  0.30008854  0.86117625    -0.97100
Zr107      Zr  0.49820739  0.26022662  0.89862064     1.88900
O108        O  0.49904809  0.19066625  0.89307934    -0.73700
O109        O  0.38327351  0.26585920  0.93507430    -0.53000
O110        O  0.44163349  0.26429581  0.85404958    -0.97700
O111        O  0.04969215  0.26688308  0.84618451    -0.54900
O112        O  0.49903589  0.22435594  0.84723494    -0.74200
C113        C  0.49925906  0.20105173  0.85319712     0.98100
O114        O  0.99250654  0.16273990  0.01008038    -0.63100
O115        O  0.11966852  0.23780624  0.05171868    -0.57900
O116        O  0.05603117  0.18182714  0.96660692    -0.94500
O117        O  0.10015974  0.21075715  0.97296604    -0.93000
O118        O  0.05368941  0.23368543  0.13916517    -0.93300
O119        O  0.99490675  0.20120809  0.13304711    -0.92100
C120        C  0.08971080  0.18892153  0.96473405     1.17000
H121        H  0.05407331  0.27506473  0.07920962     0.32900
H122        H  0.44524677  0.20982963  0.04878249     0.43700
H123        H  0.05147511  0.22312218  0.91361520     0.37300
H124        H  0.44888747  0.29376683  0.94415908     0.33800
H125        H  0.45479458  0.24110475  0.17612390     0.25500
H126        H  0.35849057  0.26146172  0.94633982     0.31500
H127        H  0.44799268  0.25841929  0.82260500     0.37400
H128        H  0.04480977  0.23071132  0.17105921     0.31800
H129        H  0.14250008  0.24535202  0.03989603     0.30700
H130        H  0.13652498  0.24986322  0.93921697     0.32400
H131        H  0.04022038  0.26259600  0.81506432     0.31400
H132        H  0.49432609  0.18901457  0.10774513     0.35400
H133        H  0.01418360  0.16167899  0.03072651     0.28100
H134        H  0.52037098  0.33697725  0.95865152     0.32300
H135        H  0.49137765  0.29700659  0.82841509     0.35200
H136        H  0.11358326  0.24715810  0.08007255     0.27800
H137        H  0.47137301  0.16400610  0.03159097     0.40700
H138        H  0.38470667  0.23003572  0.06994647     0.30700
H139        H  0.42774491  0.24685681  0.13528248     0.38300
H140        H  0.06759516  0.25381411  0.85360014     0.30200
H141        H  0.38363982  0.28391179  0.93629953     0.30300
H142        H  0.47757485  0.33816564  0.96344484     0.30500
C143        C  0.49774880  0.39685898  0.35760115     0.45000
H144        H  0.49331861  0.41654495  0.35729127    -0.04100
C145        C  0.50284297  0.35004824  0.36187901     0.45000
H146        H  0.00452233  0.33050264  0.36779789    -0.04100
C147        C  0.03591955  0.38849932  0.37644449    -0.17800
C148        C  0.46684528  0.38496166  0.38705575    -0.17500
C149        C  0.99554231  0.38494213  0.30919818    -0.17900
C150        C  0.03742485  0.36325512  0.38082964    -0.17900
C151        C  0.46967391  0.36002409  0.38949632    -0.17400
C152        C  0.49789447  0.35923508  0.31059121    -0.17800
Zr153      Zr  0.25173440  0.05055326  0.51576842     2.17500
O154        O  0.25053700  0.09074192  0.47982699    -0.51800
O155        O  0.25230508  0.06395482  0.59618348    -0.75000
O156        O  0.19082701  0.06883359  0.53131756    -0.81800
O157        O  0.35477104  0.03855787  0.51709719    -0.83600
O158        O  0.14782320  0.03922412  0.52204800    -0.79200
O159        O  0.31280380  0.06916928  0.52298239    -0.90800
O160        O  0.24989856  0.03027873  0.64173093    -0.76800
O161        O  0.21249254  0.02238118  0.55355613    -0.86300
O162        O  0.28961579  0.02118130  0.55369672    -0.86000
O163        O  0.21600998  0.03257496  0.45458017    -0.72700
O164        O  0.28727640  0.03148698  0.45490553    -0.84900
Zr165      Zr  0.25021083  0.45495411  0.47128624     2.26400
Zr166      Zr  0.17788158  0.00369974  0.49364329     2.06300
Zr167      Zr  0.32437591  0.00177251  0.49389004     2.10000
Zr168      Zr  0.25028332  0.49353766  0.59168749     1.78800
O169        O  0.36764712  0.01142241  0.43233842    -0.93700
O170        O  0.19587400  0.48779726  0.63951880    -0.41500
O171        O  0.28591077  0.47314642  0.53252795    -0.78100
O172        O  0.21454073  0.47369497  0.53236267    -0.96800
O173        O  0.21223203  0.48425344  0.43396994    -0.90100
O174        O  0.28955858  0.48324122  0.43383930    -0.92900
C175        C  0.25119946  0.05365869  0.63608808     1.00800
C176        C  0.34589982  0.06070381  0.52566774     1.13700
C177        C  0.15761302  0.06071753  0.53288043     1.04500
O178        O  0.13335949  0.48939618  0.55031106    -0.95100
O179        O  0.14493661  0.46927427  0.46587632    -0.90800
O180        O  0.18823809  0.44064382  0.44853297    -0.84000
C181        C  0.15468631  0.44872226  0.44915934     1.11200
O182        O  0.25054368  0.05068687  0.35450470    -0.97100
Zr183      Zr  0.25123614  0.01182890  0.39554885     1.88900
O184        O  0.25341077  0.44139921  0.39128473    -0.73700
O185        O  0.13327382  0.01953738  0.43817762    -0.53000
O186        O  0.19531903  0.01640077  0.34982542    -0.97700
O187        O  0.30428282  0.01698220  0.34495754    -0.54900
O188        O  0.24984552  0.47519823  0.34560275    -0.74200
C189        C  0.25144480  0.45186458  0.35156217     0.98100
O190        O  0.24412468  0.41526069  0.50824547    -0.63100
O191        O  0.37002938  0.49190551  0.55273951    -0.57900
O192        O  0.31108785  0.43467692  0.46564890    -0.94500
O193        O  0.35435482  0.46366920  0.47526845    -0.93000
O194        O  0.30395824  0.48739479  0.64081137    -0.93300
O195        O  0.24897941  0.45469296  0.63252207    -0.92100
C196        C  0.34497701  0.44165153  0.46677041     1.17000
H197        H  0.30538071  0.02864609  0.57647197     0.32900
H198        H  0.19880767  0.46163818  0.54637279     0.43700
H199        H  0.30553065  0.47526244  0.41171382     0.37300
H200        H  0.20127108  0.04520761  0.44027766     0.33800
H201        H  0.20196833  0.49543028  0.66961113     0.25500
H202        H  0.10969150  0.02055865  0.45525165     0.31500
H203        H  0.20239733  0.01149176  0.31800917     0.37400
H204        H  0.29416431  0.48738161  0.67282395     0.31800
H205        H  0.39227912  0.50110916  0.54381227     0.30700
H206        H  0.39068212  0.00293697  0.44119968     0.32400
H207        H  0.31608983  0.00069376  0.34321870     0.31400
H208        H  0.25121339  0.44226430  0.60776359     0.35400
H209        H  0.26526174  0.41417137  0.52977083     0.28100
H210        H  0.24585281  0.10219591  0.50573010     0.32300
H211        H  0.24952446  0.04649512  0.32116224     0.35200
H212        H  0.36118909  0.50008275  0.58122237     0.27800
H213        H  0.22247431  0.41703549  0.52878109     0.40700
H214        H  0.10924920  0.49503271  0.53838306     0.30700
H215        H  0.17702717  0.49869533  0.62581987     0.38300
H216        H  0.32163572  0.02700040  0.36314110     0.30200
H217        H  0.13999051  0.03664630  0.43184816     0.30300
H218        H  0.22761461  0.09110045  0.46131317     0.30500
C219        C  0.25024003  0.34988888  0.13848395     0.45000
H220        H  0.24994541  0.33046521  0.13190619    -0.04100
C221        C  0.24857972  0.39662207  0.14751607     0.45000
H222        H  0.25074201  0.41615037  0.15295958    -0.04100
C223        C  0.28518989  0.36276946  0.11904547    -0.17800
C224        C  0.21701294  0.36181530  0.11351188    -0.17500
C225        C  0.24663885  0.35724350  0.19050412    -0.17900
C226        C  0.28382438  0.38760529  0.12370539    -0.17900
C227        C  0.21680137  0.38722999  0.11597021    -0.17400
C228        C  0.24561873  0.38291117  0.19505892    -0.17800
Zr229      Zr  0.25324182  0.29808406  0.47991510     2.17500
O230        O  0.25231843  0.33955040  0.51020161    -0.51800
O231        O  0.25652599  0.30789170  0.39817629    -0.75000
O232        O  0.31457467  0.31500895  0.46647956    -0.81800
O233        O  0.14767481  0.28924463  0.48264911    -0.83600
O234        O  0.35663996  0.28537938  0.48404469    -0.79200
O235        O  0.19228808  0.31645212  0.46314196    -0.90800
O236        O  0.24939052  0.27250955  0.35867459    -0.76800
O237        O  0.29040986  0.26663267  0.44671952    -0.86300
O238        O  0.21302786  0.26837563  0.44866101    -0.86000
O239        O  0.28988241  0.28199998  0.54257824    -0.72700
O240        O  0.21765278  0.28370934  0.54447295    -0.84900
Zr241      Zr  0.24921477  0.20550592  0.53997806     2.26400
Zr242      Zr  0.32517116  0.24948810  0.50909438     2.06300
Zr243      Zr  0.17784383  0.25358538  0.51209264     2.10000
Zr244      Zr  0.24948244  0.23793162  0.41404280     1.78800
O245        O  0.13652411  0.27131576  0.56938453    -0.93700
O246        O  0.30171978  0.22753497  0.36496811    -0.41500
O247        O  0.21326999  0.22172846  0.47695045    -0.78100
O248        O  0.28514540  0.21990273  0.47545674    -0.96800
O249        O  0.29041115  0.23437355  0.57247815    -0.90100
O250        O  0.21334918  0.23726570  0.57374950    -0.92900
C251        C  0.25279117  0.29597043  0.36028798     1.00800
C252        C  0.15840480  0.30952846  0.46590207     1.13700
C253        C  0.34763610  0.30658015  0.46942357     1.04500
O254        O  0.37432849  0.23926861  0.45513522    -0.95100
O255        O  0.35397892  0.21089876  0.52714054    -0.90800
O256        O  0.30868164  0.18450830  0.54699405    -0.84000
C257        C  0.34274638  0.19008670  0.54123196     1.11200
O258        O  0.26039711  0.30712104  0.63730001    -0.97100
Zr259      Zr  0.25427761  0.26610899  0.60558284     1.88900
O260        O  0.25190576  0.19717110  0.62239863    -0.73700
O261        O  0.36676697  0.25845199  0.57296659    -0.53000
O262        O  0.31094927  0.26899144  0.65022445    -0.97700
O263        O  0.20311092  0.27767536  0.65570508    -0.54900
O264        O  0.24977562  0.23304215  0.66226378    -0.74200
C265        C  0.25041628  0.20961477  0.66003308     0.98100
O266        O  0.24363866  0.16419700  0.50970498    -0.63100
O267        O  0.13081050  0.24073150  0.45727960    -0.57900
O268        O  0.18867885  0.18899690  0.56119675    -0.94500
O269        O  0.14694501  0.21838114  0.54292583    -0.93000
O270        O  0.19395625  0.23236346  0.36817898    -0.93300
O271        O  0.24486963  0.19739309  0.38001304    -0.92100
C272        C  0.15551715  0.19744427  0.55951655     1.17000
H273        H  0.19738417  0.27494700  0.42479059     0.32900
H274        H  0.29945727  0.20659059  0.46266500     0.43700
H275        H  0.19772994  0.23139725  0.59826453     0.37300
H276        H  0.30592327  0.29453496  0.55422129     0.33800
H277        H  0.29141754  0.22644217  0.33327438     0.25500
H278        H  0.39145152  0.25404176  0.56105547     0.31500
H279        H  0.30367002  0.26552077  0.68259341     0.37400
H280        H  0.20150824  0.23583117  0.33590095     0.31800
H281        H  0.10772513  0.24032432  0.47543505     0.30700
H282        H  0.11195926  0.27107464  0.55461771     0.32400
H283        H  0.21127130  0.27339406  0.68738888     0.31400
H284        H  0.24589912  0.18614237  0.40680230     0.37000
H285        H  0.22387952  0.16545961  0.48623555     0.28100
H286        H  0.25872001  0.34993501  0.48338139     0.32300
H287        H  0.26364384  0.30496381  0.67109974     0.35200
H288        H  0.13651157  0.22340489  0.45052325     0.27800
H289        H  0.26615908  0.16138144  0.49116964     0.40700
H290        H  0.36184961  0.23095025  0.42913954     0.30700
H291        H  0.31690454  0.24243105  0.36455278     0.38300
H292        H  0.18342092  0.26583565  0.64871444     0.30200
H293        H  0.36710725  0.27645574  0.57536621     0.30300
H294        H  0.27397785  0.34045592  0.53091476     0.30500
C295        C  0.24418857  0.14844169  0.86182426     0.45000
H296        H  0.24007435  0.16833939  0.86489813    -0.04100
C297        C  0.25059049  0.10152117  0.85547845     0.45000
H298        H  0.25331469  0.08145131  0.85316524    -0.04100
C299        C  0.27975770  0.13868059  0.88555166    -0.17800
C300        C  0.21219295  0.13476806  0.88483274    -0.17500
C301        C  0.24547120  0.13946024  0.81076009    -0.17900
C302        C  0.28312313  0.11347476  0.88204254    -0.17900
C303        C  0.21541681  0.10974483  0.88210647    -0.17400
C304        C  0.24904476  0.11419886  0.80686093    -0.17800
C305        C  0.21612626  0.19084728  0.72636131    -0.02300
C306        C  0.24926487  0.19536913  0.70338059     0.07300
C307        C  0.28093829  0.18327792  0.71815397    -0.02500
C308        C  0.27797657  0.16214490  0.74556939    -0.02500
C309        C  0.24553784  0.15787968  0.77139934     0.07500
C310        C  0.21562383  0.17443685  0.76406178    -0.02700
Br311      Br  0.17394062  0.17609378  0.80419297    -0.01200
Br312      Br  0.17191225  0.20743211  0.70657925    -0.01300
Br313      Br  0.31896287  0.14035984  0.74732966    -0.01200
Br314      Br  0.32721971  0.19989065  0.71131943    -0.01200
C315        C  0.22476088  0.34442148  0.27111811    -0.02300
C316        C  0.24434498  0.33826055  0.23062602     0.07300
C317        C  0.26178059  0.31452315  0.23160909    -0.02500
C318        C  0.26630668  0.30164522  0.27417416    -0.02500
C319        C  0.25095108  0.31053175  0.31586252     0.07500
C320        C  0.23095916  0.33269036  0.31381179    -0.02700
Br321      Br  0.21175563  0.34833731  0.36873544    -0.01200
Br322      Br  0.17926469  0.36109682  0.26467733    -0.01300
Br323      Br  0.29713067  0.27276259  0.27592686    -0.01200
Br324      Br  0.27430487  0.29546330  0.17727269    -0.01200
C325        C  0.21821238  0.43364573  0.28341195    -0.02300
C326        C  0.25012233  0.43538361  0.31032711     0.07300
C327        C  0.27894843  0.41890793  0.30175687    -0.02500
C328        C  0.27461618  0.39926295  0.27047700    -0.02500
C329        C  0.24438080  0.39850169  0.23949728     0.07500
C330        C  0.21594361  0.41625408  0.24718922    -0.02700
Br331      Br  0.17082311  0.41605505  0.21359833    -0.01200
Br332      Br  0.17721402  0.45513340  0.29699674    -0.01300
Br333      Br  0.30732827  0.37216184  0.27742626    -0.01200
Br334      Br  0.32629007  0.42584327  0.32781341    -0.01200
C335        C  0.22558529  0.10347779  0.72462797    -0.02300
C336        C  0.25097068  0.09955141  0.76139869     0.07300
C337        C  0.27735598  0.08045403  0.75484330    -0.02500
C338        C  0.27668181  0.06527638  0.71495090    -0.02500
C339        C  0.25192689  0.06992803  0.67837435     0.07500
C340        C  0.22872977  0.09063298  0.68224166    -0.02700
Br341      Br  0.20199121  0.10282937  0.62934324    -0.01200
Br342      Br  0.18161081  0.12253056  0.73301908    -0.01300
Br343      Br  0.31280372  0.53946066  0.70831937    -0.01200
Br344      Br  0.31653811  0.07484185  0.79814420    -0.01200
C345        C  0.09221356  0.33401765  0.37654610    -0.02300
C346        C  0.06842807  0.34901391  0.40324693     0.07300
C347        C  0.07566205  0.35124557  0.45142869    -0.02500
C348        C  0.10567633  0.33888720  0.47192401    -0.02500
C349        C  0.12915121  0.32442613  0.44461736     0.07500
C350        C  0.12121673  0.32109879  0.39744837    -0.02700
Br351      Br  0.14891519  0.29761387  0.36132068    -0.01200
Br352      Br  0.09148511  0.33426822  0.31031576    -0.01300
Br353      Br  0.11461620  0.34141449  0.53769914    -0.01200
Br354      Br  0.04770893  0.37331787  0.48922539    -0.01200
C355        C  0.42256155  0.32540714  0.38791325    -0.02300
C356        C  0.44144421  0.34381886  0.41324765     0.07300
C357        C  0.42938693  0.34854261  0.45945026    -0.02500
C358        C  0.39710717  0.33772983  0.47693063    -0.02500
C359        C  0.37804058  0.32073951  0.45012801     0.07500
C360        C  0.39154550  0.31389945  0.40662739    -0.02700
Br361      Br  0.36612524  0.28878943  0.37198240    -0.01200
Br362      Br  0.43372273  0.31721884  0.32503089    -0.01300
Br363      Br  0.37876656  0.34569040  0.53792250    -0.01200
Br364      Br  0.45721764  0.36829910  0.50126372    -0.01200
C365        C  0.44245346  0.41817994  0.44066340    -0.02300
C366        C  0.43542037  0.39943260  0.40837401     0.07300
C367        C  0.39827408  0.39323581  0.39963212    -0.02500
C368        C  0.36929976  0.40370819  0.42551536    -0.02500
C369        C  0.37582666  0.42429322  0.45384626     0.07500
C370        C  0.41315992  0.43040360  0.46324970    -0.02700
Br371      Br  0.42573473  0.45353297  0.51118628    -0.01200
Br372      Br  0.49240313  0.42681059  0.45606277    -0.01300
Br373      Br  0.32184815  0.38786699  0.42399274    -0.01200
Br374      Br  0.38560476  0.37334089  0.34728657    -0.01200
C375        C  0.12427319  0.40886895  0.43196567    -0.02300
C376        C  0.12490435  0.43423080  0.42749566     0.07300
C377        C  0.09831904  0.44539300  0.39796322    -0.02500
C378        C  0.06949070  0.43135468  0.37821155    -0.02500
C379        C  0.06833430  0.40570980  0.38684144     0.07500
C380        C  0.10202050  0.39582220  0.40189766    -0.02700
Br381      Br  0.13185600  0.38479645  0.35233377    -0.01200
Br382      Br  0.15951393  0.39109148  0.46865936    -0.01300
Br383      Br  0.04013906  0.44721963  0.33116883    -0.01200
Br384      Br  0.10348029  0.47903057  0.37964384    -0.01200
C385        C  0.15493324  0.17447188  0.96710797    -0.02300
C386        C  0.11907962  0.17175432  0.94931505     0.07300
C387        C  0.11369420  0.15616466  0.91107072    -0.02500
C388        C  0.14377605  0.14366963  0.89125503    -0.02500
C389        C  0.18009384  0.14802350  0.90659645     0.07500
C390        C  0.18534419  0.16469443  0.94339788    -0.02700
Br391      Br  0.23346763  0.17471026  0.96308503    -0.01200
Br392      Br  0.16254226  0.19003383  0.02632593    -0.01300
Br393      Br  0.13526930  0.12329247  0.83853514    -0.01200
Br394      Br  0.06603124  0.15333320  0.88247276    -0.01200
C395        C  0.35412252  0.18755649  0.90380923    -0.02300
C396        C  0.37178033  0.17892664  0.94389775     0.07300
C397        C  0.35619578  0.15961634  0.96884900    -0.02500
C398        C  0.32347285  0.14859731  0.95298760    -0.02500
C399        C  0.30787931  0.15508160  0.90938637     0.07500
C400        C  0.32207180  0.17627225  0.88727106    -0.02700
Br401      Br  0.29846789  0.19214149  0.83615757    -0.01200
Br402      Br  0.37498044  0.21497187  0.87040412    -0.01300
Br403      Br  0.29719202  0.12809637  0.99556598    -0.01200
Br404      Br  0.37913662  0.14883289  0.02552055    -0.01200
C405        C  0.14963525  0.34971861  0.10788072    -0.02300
C406        C  0.18636131  0.34631719  0.09315297     0.07300
C407        C  0.19292248  0.32870553  0.05797325    -0.02500
C408        C  0.16318542  0.31805101  0.03388229    -0.02500
C409        C  0.12638712  0.32223705  0.04823324     0.07500
C410        C  0.12005445  0.33807255  0.08589579    -0.02700
Br411      Br  0.07116169  0.34324289  0.11051992    -0.01200
Br412      Br  0.13895982  0.36827245  0.16166248    -0.01300
Br413      Br  0.17342321  0.29929671  0.97849088    -0.01200
Br414      Br  0.24196919  0.31901201  0.04043986    -0.01200
C415        C  0.37091844  0.32253462  0.10550992    -0.02300
C416        C  0.37958272  0.32549861  0.05853543     0.07300
C417        C  0.35721727  0.34020747  0.03043033    -0.02500
C418        C  0.32554067  0.35149352  0.04918541    -0.02500
C419        C  0.31754776  0.34964156  0.09737549     0.07500
C420        C  0.34207308  0.33600167  0.12540794    -0.02700
Br421      Br  0.33995641  0.33698002  0.19150923    -0.01200
Br422      Br  0.39716467  0.29856823  0.14221635    -0.01300
Br423      Br  0.29299538  0.36776307  0.00685353    -0.01200
Br424      Br  0.36926645  0.34348237  0.96552613    -0.01200
C425        C  0.01454058  0.31872327  0.26448284    -0.02300
C426        C  0.49636240  0.34211604  0.26779426     0.07300
C427        C  0.47508555  0.34889027  0.22854402    -0.02500
C428        C  0.47922213  0.33694253  0.18541734    -0.02500
C429        C  0.50086388  0.31558116  0.18154205     0.07500
C430        C  0.01976108  0.30737001  0.22104187    -0.02700
Br431      Br  0.05568274  0.28130060  0.21530390    -0.01200
Br432      Br  0.02344826  0.29646938  0.31566677    -0.01300
Br433      Br  0.45486470  0.35049839  0.13197016    -0.01200
Br434      Br  0.43115170  0.36808740  0.23676315    -0.01200
C435        C  0.08635457  0.14772896  0.55968594    -0.02300
C436        C  0.05806311  0.15609906  0.58900981     0.07300
C437        C  0.05824956  0.18170266  0.59646820    -0.02500
C438        C  0.09190830  0.19437394  0.59340472    -0.02500
C439        C  0.12405228  0.18251035  0.57621420     0.07500
C440        C  0.12140558  0.15765751  0.56420109    -0.02700
Br441      Br  0.16117258  0.13977913  0.53597502    -0.01200
Br442      Br  0.07439428  0.15111738  0.49506562    -0.01300
Br443      Br  0.09384568  0.22723241  0.61726019    -0.01200
Br444      Br  0.01389463  0.20126006  0.59489174    -0.01200
C445        C  0.40443576  0.15805484  0.62380002    -0.02300
C446        C  0.43484692  0.15083463  0.59721818     0.07300
C447        C  0.43452845  0.15673262  0.54942879    -0.02500
C448        C  0.40380840  0.16874126  0.52947666    -0.02500
C449        C  0.37174961  0.17255819  0.55596528     0.07500
C450        C  0.37153748  0.16457940  0.60192209    -0.02700
Br451      Br  0.32593675  0.15754514  0.63144281    -0.01200
Br452      Br  0.41002930  0.16583999  0.68810157    -0.01300
Br453      Br  0.40442579  0.17831850  0.46518139    -0.01200
Br454      Br  0.47724577  0.15186116  0.51233379    -0.01200
C455        C  0.36967766  0.09003104  0.58498763    -0.02300
C456        C  0.37597028  0.07614944  0.54456171     0.07300
C457        C  0.41278812  0.07127095  0.53134968    -0.02500
C458        C  0.44220289  0.07870348  0.55957022    -0.02500
C459        C  0.43602569  0.09541230  0.59603070     0.07500
C460        C  0.39942038  0.09859478  0.61129237    -0.02700
Br461      Br  0.39005015  0.10686982  0.67479949    -0.01200
Br462      Br  0.32067154  0.09589336  0.60791250    -0.01300
Br463      Br  0.48537989  0.05820456  0.55852024    -0.01200
Br464      Br  0.42390995  0.05421126  0.47440794    -0.01200
C465        C  0.06825765  0.09542283  0.54289752    -0.02300
C466        C  0.06506777  0.09837470  0.59154241     0.07300
C467        C  0.09109275  0.08607923  0.61968696    -0.02500
C468        C  0.12104858  0.07366268  0.60000505    -0.02500
C469        C  0.12803219  0.07571583  0.55245658     0.07500
C470        C  0.10090638  0.08586138  0.52354538    -0.02700
Br471      Br  0.10776606  0.08534961  0.45730613    -0.01200
Br472      Br  0.02723307  0.10119134  0.50235360    -0.01300
Br473      Br  0.14966761  0.05093738  0.63716020    -0.01200
Br474      Br  0.08554642  0.08355287  0.68484844    -0.01200
C475        C  0.47427646  0.14899070  0.77068491    -0.02300
C476        C  0.50073868  0.15121409  0.73487481     0.07300
C477        C  0.02775287  0.16979749  0.73987834    -0.02500
C478        C  0.02681554  0.18636863  0.77751406    -0.02500
C479        C  0.49937388  0.18461904  0.81164773     0.07500
C480        C  0.47373777  0.16552157  0.80836098    -0.02700
Br481      Br  0.43724345  0.16227563  0.85599137    -0.01200
Br482      Br  0.43840782  0.12350388  0.77001891    -0.01300
Br483      Br  0.06591917  0.20969153  0.78531159    -0.01200
Br484      Br  0.07123966  0.16954545  0.70191186    -0.01200
C485        C  0.33804938  0.06866925  0.95842904    -0.02300
C486        C  0.37503652  0.07367953  0.94629687     0.07300
C487        C  0.38157369  0.09162316  0.91211414    -0.02500
C488        C  0.35183696  0.10410735  0.89104323    -0.02500
C489        C  0.31485419  0.09862112  0.90211178     0.07500
C490        C  0.30858010  0.07953767  0.93416186    -0.02700
Br491      Br  0.26004696  0.06772270  0.94719726    -0.01200
Br492      Br  0.32652084  0.04841589  0.01143231    -0.01300
Br493      Br  0.36234136  0.12682628  0.84289699    -0.01200
Br494      Br  0.43093970  0.09874200  0.89149861    -0.01200
C495        C  0.17447382  0.09617653  0.94935347    -0.02300
C496        C  0.18741490  0.09251267  0.90326993     0.07300
C497        C  0.17048978  0.07395136  0.87644485    -0.02500
C498        C  0.13931656  0.06165972  0.89351520    -0.02500
C499        C  0.12391987  0.06801875  0.93671456     0.07500
C500        C  0.14200214  0.08492810  0.96495530    -0.02700
Br501      Br  0.12322668  0.09149790  0.02634213    -0.01200
Br502      Br  0.20317421  0.11373080  0.99417415    -0.01300
Br503      Br  0.11673573  0.03619077  0.85704738    -0.01200
Br504      Br  0.18681342  0.06606680  0.81470562    -0.01200
C505        C  0.02335199  0.08120218  0.81133144    -0.02300
C506        C  0.00028353  0.06068614  0.81298691     0.07300
C507        C  0.47864652  0.05540486  0.77394964    -0.02500
C508        C  0.48032726  0.07019062  0.73361750    -0.02500
C509        C  0.00290637  0.09160616  0.73183504     0.07500
C510        C  0.02546993  0.09590435  0.77123466    -0.02700
Br511      Br  0.06384678  0.11950938  0.77007165    -0.01200
Br512      Br  0.05322377  0.08925589  0.86426657    -0.01300
Br513      Br  0.45030359  0.05945135  0.68291312    -0.01200
Br514      Br  0.44363867  0.02897930  0.77743764    -0.01200
C515        C  0.37863939  0.41388336  0.10182319    -0.02300
C516        C  0.37440002  0.42511377  0.05823632     0.07300
C517        C  0.33889896  0.42639627  0.03862464    -0.02500
C518        C  0.30831159  0.41716925  0.06277621    -0.02500
C519        C  0.31312144  0.40423536  0.10474186     0.07500
C520        C  0.34800170  0.40463887  0.12549379    -0.02700
Br521      Br  0.35221308  0.39838922  0.19018003    -0.01200
Br522      Br  0.42583437  0.41187107  0.13118450    -0.01300
Br523      Br  0.26035762  0.42434097  0.03875306    -0.01200
Br524      Br  0.33216401  0.43924223  0.97686457    -0.01200
C525        C  0.17794133  0.42717931  0.10692715    -0.02300
C526        C  0.18896764  0.40369029  0.09050159     0.07300
C527        C  0.17074295  0.39546358  0.04971963    -0.02500
C528        C  0.13620506  0.40508778  0.03695594    -0.02500
C529        C  0.12202623  0.42538757  0.06043796     0.07500
C530        C  0.14314632  0.43646709  0.09530426    -0.02700
Br531      Br  0.12446068  0.46517416  0.12709539    -0.01200
Br532      Br  0.21125739  0.45148728  0.13126111    -0.01300
Br533      Br  0.10929808  0.39142671  0.98564572    -0.01200
Br534      Br  0.19745408  0.37807529  0.00244258    -0.01200
C535        C  0.47198812  0.43746304  0.22370907    -0.02300
C536        C  0.99973883  0.43493190  0.18998151     0.07300
C537        C  0.02610499  0.41623701  0.19566657    -0.02500
C538        C  0.02523491  0.40063979  0.23455558    -0.02500
C539        C  0.99612400  0.40171108  0.26691460     0.07500
C540        C  0.46994508  0.42100911  0.26147918    -0.02700
Br541      Br  0.43005712  0.42547150  0.30433634    -0.01200
Br542      Br  0.43486391  0.46253470  0.21639827    -0.01300
Br543      Br  0.06733015  0.38068839  0.24616340    -0.01200
Br544      Br  0.06486006  0.41247275  0.15097884    -0.01200
Zr545      Zr  0.99924619  0.54533387  0.97605807     2.17500
O546        O  0.50051755  0.58618499  0.00922929    -0.51800
O547        O  0.99616592  0.55628963  0.89475772    -0.75000
O548        O  0.06097706  0.56228458  0.96009780    -0.81800
O549        O  0.39623910  0.53544327  0.97346945    -0.83600
O550        O  0.10266211  0.53128017  0.96568807    -0.79200
O551        O  0.43867343  0.56524494  0.96682871    -0.90800
O552        O  0.50101170  0.52175777  0.85167468    -0.76800
O553        O  0.03700275  0.51546795  0.93942677    -0.86300
O554        O  0.46018195  0.51593608  0.94106693    -0.86000
O555        O  0.03581035  0.52802391  0.03758880    -0.72700
O556        O  0.46401024  0.52850985  0.03907236    -0.84900
Zr557      Zr  0.49838196  0.95083621  0.02691621     2.26400
Zr558      Zr  0.07212427  0.49737858  0.99994856     2.06300
Zr559      Zr  0.42535526  0.49898160  0.00295363     2.10000
Zr560      Zr  0.99772568  0.98650772  0.90446112     1.78800
O561        O  0.38578490  0.51314274  0.06558897    -0.93700
O562        O  0.05142779  0.97689463  0.85734610    -0.41500
O563        O  0.46202886  0.96842397  0.96562201    -0.78100
O564        O  0.03397846  0.96740031  0.96407624    -0.96800
O565        O  0.03805455  0.97990350  0.06161331    -0.90100
O566        O  0.46085739  0.98091993  0.06337899    -0.92900
C567        C  0.49889768  0.54516152  0.85578322     1.00800
C568        C  0.40535853  0.55738904  0.96396518     1.13700
C569        C  0.09368645  0.55317771  0.95574963     1.04500
O570        O  0.12177821  0.98357815  0.94955699    -0.95100
O571        O  0.10121106  0.96063749  0.02524113    -0.90800
O572        O  0.05837172  0.93199658  0.04292223    -0.84000
C573        C  0.09163889  0.93981721  0.04076745     1.11200
O574        O  0.50407299  0.54967430  0.13454509    -0.97100
Zr575      Zr  0.00070543  0.50941676  0.09879694     1.88900
O576        O  0.49927470  0.93941436  0.10820656    -0.73700
O577        O  0.11470153  0.51226755  0.05862541    -0.53000
O578        O  0.05684983  0.51333161  0.14418978    -0.97700
O579        O  0.44913678  0.51797870  0.15037031    -0.54900
O580        O  0.00029369  0.97401644  0.15167226    -0.74200
C581        C  0.99989414  0.95057821  0.14732464     0.98100
O582        O  0.49943037  0.91045413  0.99167409    -0.63100
O583        O  0.37605232  0.98777513  0.95018943    -0.57900
O584        O  0.43770173  0.93236709  0.03852114    -0.94500
O585        O  0.39499268  0.96233710  0.02820100    -0.93000
O586        O  0.44184231  0.98195047  0.85891987    -0.93300
O587        O  0.49363457  0.94765824  0.86389681    -0.92100
C588        C  0.40438819  0.94056362  0.03940759     1.17000
H589        H  0.44450639  0.52313173  0.91768278     0.32900
H590        H  0.04901456  0.95465755  0.95060856     0.43700
H591        H  0.44525330  0.97383912  0.08679127     0.37300
H592        H  0.05135338  0.54050727  0.05045320     0.33800
H593        H  0.04478739  0.98232865  0.82575688     0.25500
H594        H  0.13909788  0.50625394  0.04832539     0.31500
H595        H  0.04957581  0.50930915  0.17634611     0.37400
H596        H  0.45032255  0.98091894  0.82638917     0.31800
H597        H  0.35386810  0.99612573  0.96240037     0.30700
H598        H  0.36421357  0.50222883  0.06477844     0.32400
H599        H  0.45836446  0.51397874  0.18176691     0.31400
H600        H  0.00124580  0.93536966  0.88713642     0.35400
H601        H  0.47913184  0.91080843  0.96884915     0.28100
H602        H  0.00696115  0.59697482  0.98301845     0.32300
H603        H  0.00734970  0.54678071  0.16814562     0.35200
H604        H  0.38164869  0.99633193  0.92085297     0.27800
H605        H  0.02199692  0.91017038  0.97248028     0.40700
H606        H  0.11076239  0.97084729  0.92967609     0.30700
H607        H  0.07033113  0.98864088  0.86761995     0.38300
H608        H  0.43082960  0.50520004  0.14362089     0.30200
H609        H  0.11588074  0.53015189  0.05442029     0.30300
H610        H  0.02250311  0.58628027  0.02947061     0.30500
C611        C  0.50235951  0.60008377  0.63914579     0.45000
H612        H  0.50566642  0.58014000  0.63738807    -0.04100
C613        C  0.49827274  0.64705970  0.64321080     0.45000
H614        H  0.49492221  0.66674153  0.64743875    -0.04100
C615        C  0.03426346  0.61303743  0.61315209    -0.17800
C616        C  0.46650434  0.61050316  0.61710624    -0.17500
C617        C  0.00242871  0.60940248  0.69015629    -0.17900
C618        C  0.03175214  0.63841408  0.61363805    -0.17900
C619        C  0.46491392  0.63567114  0.61901625    -0.17400
C620        C  0.50096547  0.63488260  0.69194315    -0.17800
Zr621      Zr  0.50103810  0.79785375  0.01884179     2.17500
O622        O  0.00048569  0.83783430  0.98204538    -0.51800
O623        O  0.50281729  0.81091211  0.09914195    -0.75000
O624        O  0.44151238  0.81711161  0.03636429    -0.81800
O625        O  0.10436061  0.78454151  0.02133307    -0.83600
O626        O  0.39694669  0.78857134  0.02587465    -0.79200
O627        O  0.06296063  0.81546051  0.02703431    -0.90800
O628        O  0.49794902  0.77684946  0.14321738    -0.76800
O629        O  0.46101061  0.76971280  0.05582411    -0.86300
O630        O  0.03808662  0.76791972  0.05626557    -0.86000
O631        O  0.46356286  0.78094761  0.95796044    -0.72700
O632        O  0.03580244  0.77895747  0.95747963    -0.84900
Zr633      Zr  0.49655420  0.70282171  0.97399830     2.26400
Zr634      Zr  0.42480988  0.75208608  0.99608424     2.06300
Zr635      Zr  0.07226805  0.74876532  0.99584885     2.10000
Zr636      Zr  0.49819897  0.74037549  0.09360046     1.78800
O637        O  0.11406050  0.75966780  0.93345146    -0.93700
O638        O  0.44624083  0.73478351  0.14568227    -0.41500
O639        O  0.03369115  0.72003054  0.03464423    -0.78100
O640        O  0.46104702  0.72177880  0.03468361    -0.96800
O641        O  0.45877087  0.73232176  0.93631928    -0.90100
O642        O  0.03600801  0.73103695  0.93629481    -0.92900
C643        C  0.50059951  0.80017172  0.13847924     1.00800
C644        C  0.09594136  0.80673914  0.03002954     1.13700
C645        C  0.40797331  0.80969280  0.03806735     1.04500
O646        O  0.37471489  0.74271912  0.04902122    -0.95100
O647        O  0.39351644  0.71518410  0.97515427    -0.90800
O648        O  0.43549921  0.68508367  0.96100042    -0.84000
C649        C  0.40238455  0.69355953  0.96249842     1.11200
O650        O  0.99779945  0.80007799  0.86114064    -0.97100
Zr651      Zr  0.49823910  0.76022743  0.89862753     1.88900
O652        O  0.49904576  0.69068230  0.89309002    -0.73700
O653        O  0.38316321  0.76582494  0.93514177    -0.53000
O654        O  0.44169061  0.76422708  0.85399031    -0.97700
O655        O  0.04973802  0.76686118  0.84619797    -0.54900
O656        O  0.49910343  0.72436754  0.84723758    -0.74200
C657        C  0.49929752  0.70106544  0.85320724     0.98100
O658        O  0.99262460  0.66273307  0.01009549    -0.63100
O659        O  0.11971233  0.73781075  0.05170476    -0.57900
O660        O  0.05601894  0.68182233  0.96663611    -0.94500
O661        O  0.10015363  0.71074632  0.97301828    -0.93000
O662        O  0.05360253  0.73361093  0.13925625    -0.93300
O663        O  0.99488872  0.70118266  0.13302769    -0.92100
C664        C  0.08969928  0.68891340  0.96477506     1.17000
H665        H  0.05407208  0.77504890  0.07923569     0.32900
H666        H  0.44521137  0.70982149  0.04876123     0.43700
H667        H  0.05149061  0.72311579  0.91364898     0.37300
H668        H  0.44889919  0.79377165  0.94414355     0.33800
H669        H  0.45459333  0.74115882  0.17597683     0.25500
H670        H  0.35838734  0.76152179  0.94657183     0.31500
H671        H  0.44812991  0.75845266  0.82250158     0.37400
H672        H  0.04468780  0.73069744  0.17115407     0.31800
H673        H  0.14253597  0.74536436  0.03986273     0.30700
H674        H  0.13652421  0.74985551  0.93923062     0.32400
H675        H  0.04024677  0.76262286  0.81506464     0.31400
H676        H  0.49354062  0.68902101  0.10772359     0.35400
H677        H  0.01420280  0.66175436  0.03092068     0.28100
H678        H  0.52046338  0.83700877  0.95879648     0.32300
H679        H  0.49154612  0.79696129  0.82831290     0.35200
H680        H  0.11363519  0.74715915  0.08006180     0.27800
H681        H  0.47137253  0.66393109  0.03143418     0.40700
H682        H  0.38462023  0.72986489  0.06967586     0.30700
H683        H  0.42758923  0.74672535  0.13499552     0.38300
H684        H  0.06759698  0.75375512  0.85355620     0.30200
H685        H  0.38364632  0.78387839  0.93621130     0.30300
H686        H  0.47764893  0.83813681  0.96336821     0.30500
C687        C  0.49774783  0.89685321  0.35757407     0.45000
H688        H  0.49331085  0.91653809  0.35726421    -0.04100
C689        C  0.50285927  0.85004355  0.36186404     0.45000
H690        H  0.00454958  0.83049849  0.36778526    -0.04100
C691        C  0.03592638  0.88849938  0.37640182    -0.17800
C692        C  0.46686037  0.88495332  0.38704635    -0.17500
C693        C  0.99552470  0.88493334  0.30917597    -0.17900
C694        C  0.03744024  0.86325521  0.38078518    -0.17900
C695        C  0.46969963  0.86001756  0.38950285    -0.17400
C696        C  0.49789548  0.85922524  0.31057777    -0.17800
Zr697      Zr  0.25174896  0.55056949  0.51575613     2.17500
O698        O  0.25052220  0.59076085  0.47982289    -0.51800
O699        O  0.25231650  0.56396630  0.59618160    -0.75000
O700        O  0.19084382  0.56884600  0.53130421    -0.81800
O701        O  0.35478837  0.53859836  0.51708466    -0.83600
O702        O  0.14783673  0.53923877  0.52202974    -0.79200
O703        O  0.31281060  0.56920262  0.52295340    -0.90800
O704        O  0.24997152  0.53028727  0.64172649    -0.76800
O705        O  0.21251523  0.52239060  0.55354675    -0.86300
O706        O  0.28964412  0.52119945  0.55367278    -0.86000
O707        O  0.21601028  0.53259229  0.45457593    -0.72700
O708        O  0.28729604  0.53152131  0.45487207    -0.84900
Zr709      Zr  0.25019111  0.95491953  0.47129878     2.26400
Zr710      Zr  0.17789030  0.50371070  0.49364201     2.06300
Zr711      Zr  0.32440897  0.50181030  0.49384924     2.10000
Zr712      Zr  0.25024541  0.99352517  0.59170319     1.78800
O713        O  0.36765767  0.51148654  0.43228611    -0.93700
O714        O  0.19578905  0.98778863  0.63945401    -0.41500
O715        O  0.28586573  0.97311185  0.53255991    -0.78100
O716        O  0.21452364  0.97367674  0.53236752    -0.96800
O717        O  0.21221549  0.98422355  0.43398386    -0.90100
O718        O  0.28954115  0.98320418  0.43386759    -0.92900
C719        C  0.25124681  0.55366823  0.63608782     1.00800
C720        C  0.34591078  0.56074415  0.52564428     1.13700
C721        C  0.15763077  0.56073043  0.53286640     1.04500
O722        O  0.13326938  0.98938646  0.55021257    -0.95100
O723        O  0.14492470  0.96926904  0.46588446    -0.90800
O724        O  0.18821665  0.94063518  0.44852514    -0.84000
C725        C  0.15466888  0.94871883  0.44915998     1.11200
O726        O  0.25049110  0.55075155  0.35457304    -0.97100
Zr727      Zr  0.25124064  0.51186355  0.39552252     1.88900
O728        O  0.25341456  0.94136040  0.39130167    -0.73700
O729        O  0.13321575  0.51950901  0.43822227    -0.53000
O730        O  0.19529320  0.51644527  0.34986481    -0.97700
O731        O  0.30421252  0.51702056  0.34480206    -0.54900
O732        O  0.24984193  0.97516643  0.34564113    -0.74200
C733        C  0.25144819  0.95183359  0.35158653     0.98100
O734        O  0.24409073  0.91521774  0.50822683    -0.63100
O735        O  0.36994829  0.99184649  0.55282409    -0.57900
O736        O  0.31108382  0.93465856  0.46558278    -0.94500
O737        O  0.35434470  0.96364469  0.47529517    -0.93000
O738        O  0.30400164  0.98739742  0.64069285    -0.93300
O739        O  0.24890267  0.95473205  0.63270776    -0.92100
C740        C  0.34497366  0.94163258  0.46674225     1.17000
H741        H  0.30541050  0.52866582  0.57644891     0.32900
H742        H  0.19878612  0.96162644  0.54637620     0.43700
H743        H  0.30551659  0.97522693  0.41174445     0.37300
H744        H  0.20125827  0.54522345  0.44028441     0.33800
H745        H  0.20180107  0.99549919  0.66949633     0.25500
H746        H  0.10965475  0.52054867  0.45533601     0.31500
H747        H  0.20233775  0.51150891  0.31805043     0.37400
H748        H  0.29425898  0.98737421  0.67272984     0.31800
H749        H  0.39221808  0.00102789  0.54389143     0.30700
H750        H  0.39067485  0.50295612  0.44107184     0.32400
H751        H  0.31607202  0.50074675  0.34313521     0.31400
H752        H  0.25146912  0.94227914  0.60804095     0.35400
H753        H  0.26536236  0.91404781  0.52952495     0.28100
H754        H  0.24600288  0.60222167  0.50576147     0.32300
H755        H  0.24940402  0.54658293  0.32122574     0.35200
H756        H  0.36111701  0.00004732  0.58128649     0.27800
H757        H  0.22258748  0.91704074  0.52899471     0.40700
H758        H  0.10917024  0.99498998  0.53819362     0.30700
H759        H  0.17691390  0.99862159  0.62562184     0.38300
H760        H  0.32155145  0.52709090  0.36290256     0.30200
H761        H  0.13993874  0.53661130  0.43183112     0.30300
H762        H  0.22751679  0.59115929  0.46147918     0.30500
C763        C  0.25023467  0.84987899  0.13851166     0.45000
H764        H  0.24991600  0.83045549  0.13193332    -0.04100
C765        C  0.24861597  0.89661451  0.14751950     0.45000
H766        H  0.25078725  0.91614471  0.15294798    -0.04100
C767        C  0.28521072  0.86273974  0.11911111    -0.17800
C768        C  0.21703270  0.86181463  0.11350042    -0.17500
C769        C  0.24662398  0.85724455  0.19052617    -0.17900
C770        C  0.28387810  0.88757527  0.12377125    -0.17900
C771        C  0.21683661  0.88723122  0.11595463    -0.17400
C772        C  0.24561976  0.88291282  0.19506102    -0.17800
Zr773      Zr  0.25324518  0.79808758  0.47992833     2.17500
O774        O  0.25237977  0.83955532  0.51021427    -0.51800
O775        O  0.25653265  0.80789276  0.39819738    -0.75000
O776        O  0.31458806  0.81500422  0.46648093    -0.81800
O777        O  0.14765593  0.78924530  0.48266554    -0.83600
O778        O  0.35665276  0.78536595  0.48399996    -0.79200
O779        O  0.19227717  0.81644575  0.46314519    -0.90800
O780        O  0.24935707  0.77251486  0.35869150    -0.76800
O781        O  0.29039720  0.76663311  0.44671800    -0.86300
O782        O  0.21301928  0.76838250  0.44867652    -0.86000
O783        O  0.28989734  0.78199032  0.54257100    -0.72700
O784        O  0.21764696  0.78371762  0.54447907    -0.84900
Zr785      Zr  0.24922801  0.70550861  0.53998007     2.26400
Zr786      Zr  0.32517777  0.74947675  0.50906247     2.06300
Zr787      Zr  0.17783864  0.75358925  0.51210796     2.10000
Zr788      Zr  0.24946030  0.73793450  0.41405283     1.78800
O789        O  0.13656446  0.77131493  0.56945742    -0.93700
O790        O  0.30169113  0.72755299  0.36496227    -0.41500
O791        O  0.21326599  0.72173470  0.47697013    -0.78100
O792        O  0.28514025  0.71989653  0.47544247    -0.96800
O793        O  0.29041924  0.73438204  0.57247060    -0.90100
O794        O  0.21335542  0.73726558  0.57374801    -0.92900
C795        C  0.25277815  0.79597420  0.36031077     1.00800
C796        C  0.15839052  0.80952552  0.46590551     1.13700
C797        C  0.34764985  0.80657189  0.46940249     1.04500
O798        O  0.37419460  0.73918081  0.45494721    -0.95100
O799        O  0.35397134  0.71089203  0.52718068    -0.90800
O800        O  0.30868057  0.68448973  0.54699532    -0.84000
C801        C  0.34274505  0.69007625  0.54125787     1.11200
O802        O  0.26019633  0.80714483  0.63728358    -0.97100
Zr803      Zr  0.25427396  0.76611624  0.60557840     1.88900
O804        O  0.25190434  0.69718779  0.62240424    -0.73700
O805        O  0.36690619  0.75839379  0.57282214    -0.53000
O806        O  0.31093848  0.76912711  0.65020023    -0.97700
O807        O  0.20305888  0.77759183  0.65570259    -0.54900
O808        O  0.24981141  0.73305676  0.66227673    -0.74200
C809        C  0.25042691  0.70962953  0.66004072     0.98100
O810        O  0.24360310  0.66420273  0.50971654    -0.63100
O811        O  0.13075319  0.74074857  0.45735161    -0.57900
O812        O  0.18872024  0.68896622  0.56118100    -0.94500
O813        O  0.14699149  0.71834692  0.54287381    -0.93000
O814        O  0.19391639  0.73231499  0.36824275    -0.93300
O815        O  0.24483611  0.69739053  0.38005529    -0.92100
C816        C  0.15556007  0.69740964  0.55946741     1.17000
H817        H  0.19737239  0.77495423  0.42480398     0.32900
H818        H  0.29944383  0.70658155  0.46264675     0.43700
H819        H  0.19773931  0.73138915  0.59825716     0.37300
H820        H  0.30595047  0.79451955  0.55421515     0.33800
H821        H  0.29138277  0.72646186  0.33327190     0.25500
H822        H  0.39154325  0.75387008  0.56091141     0.31500
H823        H  0.30368163  0.76562638  0.68256800     0.37400
H824        H  0.20134960  0.73601248  0.33601574     0.31800
H825        H  0.10767208  0.74038207  0.47552152     0.30700
H826        H  0.11199390  0.77110187  0.55469973     0.32400
H827        H  0.21124688  0.77334530  0.68739353     0.31400
H828        H  0.24581791  0.68614740  0.40685833     0.37000
H829        H  0.22384889  0.66547639  0.48623998     0.28100
H830        H  0.25887330  0.84993187  0.48341794     0.32300
H831        H  0.26340134  0.80499950  0.67109223     0.35200
H832        H  0.13640402  0.72341155  0.45063488     0.27800
H833        H  0.26612190  0.66137392  0.49118853     0.40700
H834        H  0.36167715  0.73070457  0.42916651     0.30700
H835        H  0.31687120  0.74245196  0.36455061     0.38300
H836        H  0.18342176  0.76570904  0.64874708     0.30200
H837        H  0.36739924  0.77640009  0.57510998     0.30300
H838        H  0.27399790  0.84043130  0.53100425     0.30500
C839        C  0.24416106  0.64844943  0.86180068     0.45000
H840        H  0.24003639  0.66834629  0.86486208    -0.04100
C841        C  0.25057797  0.60152899  0.85548255     0.45000
H842        H  0.25330465  0.58145898  0.85317654    -0.04100
C843        C  0.27973192  0.63869552  0.88553954    -0.17800
C844        C  0.21216639  0.63477684  0.88480833    -0.17500
C845        C  0.24545272  0.63946113  0.81074374    -0.17900
C846        C  0.28310889  0.61348857  0.88204202    -0.17900
C847        C  0.21539865  0.60975336  0.88209668    -0.17400
C848        C  0.24903687  0.61420015  0.80686323    -0.17800
C849        C  0.21611620  0.69084550  0.72633607    -0.02300
C850        C  0.24926392  0.69537855  0.70338124     0.07300
C851        C  0.28093564  0.68328596  0.71815815    -0.02500
C852        C  0.27797141  0.66214986  0.74556978    -0.02500
C853        C  0.24552026  0.65787387  0.77137124     0.07500
C854        C  0.21560078  0.67442408  0.76401760    -0.02700
Br855      Br  0.17390438  0.67607544  0.80413114    -0.01200
Br856      Br  0.17190459  0.70743634  0.70656305    -0.01300
Br857      Br  0.31898354  0.64038623  0.74741469    -0.01200
Br858      Br  0.32722021  0.69989551  0.71129883    -0.01200
C859        C  0.22476617  0.84443820  0.27116497    -0.02300
C860        C  0.24434406  0.83827260  0.23066601     0.07300
C861        C  0.26178927  0.81453886  0.23165071    -0.02500
C862        C  0.26630991  0.80165845  0.27421178    -0.02500
C863        C  0.25094313  0.81053975  0.31589593     0.07500
C864        C  0.23094946  0.83269775  0.31385578    -0.02700
Br865      Br  0.21169294  0.84830973  0.36879435    -0.01200
Br866      Br  0.17930392  0.86115500  0.26473737    -0.01300
Br867      Br  0.29711997  0.77276819  0.27596154    -0.01200
Br868      Br  0.27433557  0.79548487  0.17731564    -0.01200
C869        C  0.21823865  0.93365478  0.28338847    -0.02300
C870        C  0.25013520  0.93536870  0.31033610     0.07300
C871        C  0.27896278  0.91889631  0.30175941    -0.02500
C872        C  0.27463337  0.89926340  0.27045738    -0.02500
C873        C  0.24439666  0.89851042  0.23948019     0.07500
C874        C  0.21596750  0.91626921  0.24715982    -0.02700
Br875      Br  0.17084262  0.91607565  0.21356527    -0.01200
Br876      Br  0.17726032  0.95516738  0.29693019    -0.01300
Br877      Br  0.30734932  0.87216341  0.27737890    -0.01200
Br878      Br  0.32630005  0.92581664  0.32785035    -0.01200
C879        C  0.22558666  0.60346090  0.72465742    -0.02300
C880        C  0.25097800  0.59954873  0.76141502     0.07300
C881        C  0.27737927  0.58046449  0.75486306    -0.02500
C882        C  0.27672011  0.56528591  0.71497038    -0.02500
C883        C  0.25197175  0.56993629  0.67838055     0.07500
C884        C  0.22875659  0.59063306  0.68225920    -0.02700
Br885      Br  0.20202990  0.60285142  0.62937454    -0.01200
Br886      Br  0.18156250  0.62244971  0.73311760    -0.01300
Br887      Br  0.31276377  0.03945135  0.70825930    -0.01200
Br888      Br  0.31654933  0.57487504  0.79818614    -0.01200
C889        C  0.09221953  0.83401246  0.37651168    -0.02300
C890        C  0.06843772  0.84901546  0.40320561     0.07300
C891        C  0.07566452  0.85125479  0.45138665    -0.02500
C892        C  0.10567171  0.83889665  0.47189506    -0.02500
C893        C  0.12914053  0.82442223  0.44460367     0.07500
C894        C  0.12121377  0.82109140  0.39743051    -0.02700
Br895      Br  0.14892278  0.79760999  0.36131169    -0.01200
Br896      Br  0.09151001  0.83426804  0.31027051    -0.01300
Br897      Br  0.11462058  0.84145863  0.53766336    -0.01200
Br898      Br  0.04772033  0.87334816  0.48915733    -0.01200
C899        C  0.42260716  0.82539416  0.38793352    -0.02300
C900        C  0.44147616  0.84381239  0.41326653     0.07300
C901        C  0.42939209  0.84854962  0.45945731    -0.02500
C902        C  0.39710934  0.83773280  0.47692464    -0.02500
C903        C  0.37805654  0.82073611  0.45011804     0.07500
C904        C  0.39157839  0.81389405  0.40662692    -0.02700
Br905      Br  0.36615081  0.78880174  0.37194556    -0.01200
Br906      Br  0.43378125  0.81719938  0.32505678    -0.01300
Br907      Br  0.37874834  0.84569488  0.53790802    -0.01200
Br908      Br  0.45717249  0.86834112  0.50127327    -0.01200
C909        C  0.44246328  0.91817010  0.44063816    -0.02300
C910        C  0.43543309  0.89942134  0.40835430     0.07300
C911        C  0.39829063  0.89321805  0.39961426    -0.02500
C912        C  0.36931493  0.90368877  0.42549647    -0.02500
C913        C  0.37583398  0.92428309  0.45380740     0.07500
C914        C  0.41316780  0.93040057  0.46320548    -0.02700
Br915      Br  0.42575052  0.95354539  0.51111280    -0.01200
Br916      Br  0.49241510  0.92676944  0.45609393    -0.01300
Br917      Br  0.32188275  0.88782228  0.42402812    -0.01200
Br918      Br  0.38563284  0.87330274  0.34729094    -0.01200
C919        C  0.12425703  0.90887420  0.43197272    -0.02300
C920        C  0.12488493  0.93423392  0.42750197     0.07300
C921        C  0.09830052  0.94539920  0.39797533    -0.02500
C922        C  0.06947757  0.93136139  0.37821194    -0.02500
C923        C  0.06833034  0.90571424  0.38681917     0.07500
C924        C  0.10200905  0.89582808  0.40190345    -0.02700
Br925      Br  0.13185526  0.88476511  0.35238993    -0.01200
Br926      Br  0.15950686  0.89110091  0.46866468    -0.01300
Br927      Br  0.04011235  0.94723567  0.33119592    -0.01200
Br928      Br  0.10345634  0.97904275  0.37968972    -0.01200
C929        C  0.15492026  0.67447147  0.96711089    -0.02300
C930        C  0.11906140  0.67174777  0.94934190     0.07300
C931        C  0.11366597  0.65616427  0.91109120    -0.02500
C932        C  0.14374564  0.64367337  0.89125932    -0.02500
C933        C  0.18006852  0.64803373  0.90657677     0.07500
C934        C  0.18532514  0.66470932  0.94337004    -0.02700
Br935      Br  0.23344561  0.67475585  0.96301226    -0.01200
Br936      Br  0.16255086  0.69003283  0.02632583    -0.01300
Br937      Br  0.13522863  0.62328949  0.83855928    -0.01200
Br938      Br  0.06599337  0.65334055  0.88250735    -0.01200
C939        C  0.35407895  0.68758429  0.90375602    -0.02300
C940        C  0.37176597  0.67894737  0.94382223     0.07300
C941        C  0.35619859  0.65963198  0.96877359    -0.02500
C942        C  0.32346204  0.64862041  0.95294766    -0.02500
C943        C  0.30784373  0.65510623  0.90936359     0.07500
C944        C  0.32201895  0.67630051  0.88724189    -0.02700
Br945      Br  0.29839820  0.69216305  0.83613011    -0.01200
Br946      Br  0.37492018  0.71499464  0.87032397    -0.01300
Br947      Br  0.29720490  0.62812749  0.99555909    -0.01200
Br948      Br  0.37918401  0.64882469  0.02539775    -0.01200
C949        C  0.14965072  0.84972673  0.10785506    -0.02300
C950        C  0.18637475  0.84631909  0.09313099     0.07300
C951        C  0.19292395  0.82870683  0.05794470    -0.02500
C952        C  0.16318241  0.81806535  0.03383720    -0.02500
C953        C  0.12638795  0.82225155  0.04819959     0.07500
C954        C  0.12006348  0.83808972  0.08586290    -0.02700
Br955      Br  0.07117127  0.84328714  0.11046786    -0.01200
Br956      Br  0.13899320  0.86827774  0.16164750    -0.01300
Br957      Br  0.17340253  0.79933323  0.97840541    -0.01200
Br958      Br  0.24195748  0.81898709  0.04043649    -0.01200
C959        C  0.37093505  0.82250379  0.10555365    -0.02300
C960        C  0.37959037  0.82547840  0.05857959     0.07300
C961        C  0.35720355  0.84017766  0.03048283    -0.02500
C962        C  0.32551705  0.85144637  0.04924304    -0.02500
C963        C  0.31755014  0.84959960  0.09743894     0.07500
C964        C  0.34209691  0.83597031  0.12546550    -0.02700
Br965      Br  0.34004414  0.83696900  0.19156875    -0.01200
Br966      Br  0.39718209  0.79852640  0.14224183    -0.01300
Br967      Br  0.29293998  0.86770437  0.00692079    -0.01200
Br968      Br  0.36925728  0.84347977  0.96558994    -0.01200
C969        C  0.01455873  0.81870346  0.26449368    -0.02300
C970        C  0.49637825  0.84209817  0.26779253     0.07300
C971        C  0.47510207  0.84886561  0.22854148    -0.02500
C972        C  0.47924356  0.83691674  0.18542053    -0.02500
C973        C  0.50089245  0.81555852  0.18155123     0.07500
C974        C  0.01978528  0.80734818  0.22105501    -0.02700
Br975      Br  0.05571178  0.78128080  0.21532241    -0.01200
Br976      Br  0.02346746  0.79644941  0.31568263    -0.01300
Br977      Br  0.45487117  0.85046676  0.13197894    -0.01200
Br978      Br  0.43115919  0.86805200  0.23675623    -0.01200
C979        C  0.08635340  0.64772105  0.55958127    -0.02300
C980        C  0.05808103  0.65609563  0.58893458     0.07300
C981        C  0.05828813  0.68169607  0.59639761    -0.02500
C982        C  0.09195745  0.69435243  0.59333866    -0.02500
C983        C  0.12408902  0.68247850  0.57614447     0.07500
C984        C  0.12141712  0.65763102  0.56410126    -0.02700
Br985      Br  0.16116387  0.63974898  0.53584180    -0.01200
Br986      Br  0.07438873  0.65114682  0.49496333    -0.01300
Br987      Br  0.09392915  0.72720899  0.61718631    -0.01200
Br988      Br  0.01394747  0.70126508  0.59479132    -0.01200
C989        C  0.40446381  0.65807918  0.62384115    -0.02300
C990        C  0.43487857  0.65086636  0.59725695     0.07300
C991        C  0.43454917  0.65675046  0.54946358    -0.02500
C992        C  0.40382308  0.66875136  0.52951378    -0.02500
C993        C  0.37175873  0.67255633  0.55599905     0.07500
C994        C  0.37155626  0.66458565  0.60196125    -0.02700
Br995      Br  0.32595948  0.65754018  0.63148168    -0.01200
Br996      Br  0.41005492  0.66586317  0.68814435    -0.01300
Br997      Br  0.40444952  0.67834370  0.46522984    -0.01200
Br998      Br  0.47724661  0.65184512  0.51234377    -0.01200
C999        C  0.36968349  0.59007944  0.58495489    -0.02300
C1000       C  0.37597905  0.57619813  0.54452971     0.07300
C1001       C  0.41279914  0.57132208  0.53132221    -0.02500
C1002       C  0.44221138  0.57875461  0.55955027    -0.02500
C1003       C  0.43603310  0.59545221  0.59602773     0.07500
C1004       C  0.39942435  0.59863432  0.61127841    -0.02700
Br1005     Br  0.39004681  0.60687866  0.67479761    -0.01200
Br1006     Br  0.32067136  0.59593585  0.60786369    -0.01300
Br1007     Br  0.48538162  0.55825330  0.55851459    -0.01200
Br1008     Br  0.42392588  0.55423898  0.47440497    -0.01200
C1009       C  0.06827874  0.59542833  0.54287208    -0.02300
C1010       C  0.06507993  0.59837818  0.59152174     0.07300
C1011       C  0.09111227  0.58609002  0.61966944    -0.02500
C1012       C  0.12107253  0.57367874  0.59998882    -0.02500
C1013       C  0.12805460  0.57572934  0.55244140     0.07500
C1014       C  0.10093123  0.58586945  0.52352616    -0.02700
Br1015     Br  0.10780608  0.58534496  0.45728649    -0.01200
Br1016     Br  0.02727647  0.60120090  0.50229736    -0.01300
Br1017     Br  0.14969449  0.55095584  0.63714125    -0.01200
Br1018     Br  0.08557902  0.58356593  0.68483549    -0.01200
C1019       C  0.47431800  0.64901387  0.77068612    -0.02300
C1020       C  0.50078491  0.65123982  0.73487752     0.07300
C1021       C  0.02780312  0.66982177  0.73989161    -0.02500
C1022       C  0.02687898  0.68637751  0.77754984    -0.02500
C1023       C  0.49942465  0.68463216  0.81166546     0.07500
C1024       C  0.47378054  0.66554162  0.80836627    -0.02700
Br1025     Br  0.43727986  0.66230375  0.85599135    -0.01200
Br1026     Br  0.43842195  0.62354072  0.77000317    -0.01300
Br1027     Br  0.06602559  0.70966346  0.78541399    -0.01200
Br1028     Br  0.07126489  0.66960842  0.70187956    -0.01200
C1029       C  0.33803593  0.56862938  0.95833441    -0.02300
C1030       C  0.37502251  0.57362861  0.94619037     0.07300
C1031       C  0.38156953  0.59160696  0.91207833    -0.02500
C1032       C  0.35183774  0.60411761  0.89104860    -0.02500
C1033       C  0.31484634  0.59863230  0.90210501     0.07500
C1034       C  0.30856679  0.57953117  0.93412117    -0.02700
Br1035     Br  0.26002769  0.56774060  0.94721567    -0.01200
Br1036     Br  0.32651627  0.54838564  0.01135523    -0.01300
Br1037     Br  0.36238196  0.62688872  0.84300433    -0.01200
Br1038     Br  0.43095379  0.59878713  0.89159181    -0.01200
C1039       C  0.17449389  0.59619407  0.94938169    -0.02300
C1040       C  0.18741076  0.59252225  0.90328728     0.07300
C1041       C  0.17047746  0.57395230  0.87648875    -0.02500
C1042       C  0.13930142  0.56167595  0.89359019    -0.02500
C1043       C  0.12393585  0.56803536  0.93680288     0.07500
C1044       C  0.14204195  0.58493781  0.96502722    -0.02700
Br1045     Br  0.12331823  0.59148482  0.02644555    -0.01200
Br1046     Br  0.20319598  0.61377911  0.99415657    -0.01300
Br1047     Br  0.11665866  0.53622652  0.85715435    -0.01200
Br1048     Br  0.18680175  0.56602107  0.81476199    -0.01200
C1049       C  0.02338876  0.58123040  0.81134416    -0.02300
C1050       C  0.00030643  0.56072351  0.81301817     0.07300
C1051       C  0.47864413  0.55545168  0.77400097    -0.02500
C1052       C  0.48032894  0.57022866  0.73365577    -0.02500
C1053       C  0.00292327  0.59163696  0.73185498     0.07500
C1054       C  0.02549740  0.59593346  0.77124533    -0.02700
Br1055     Br  0.06388855  0.61952697  0.77003789    -0.01200
Br1056     Br  0.05330862  0.58925088  0.86424842    -0.01300
Br1057     Br  0.45033359  0.55946923  0.68293706    -0.01200
Br1058     Br  0.44362721  0.52903615  0.77753148    -0.01200
C1059       C  0.37871390  0.91385169  0.10186235    -0.02300
C1060       C  0.37445630  0.92508858  0.05828645     0.07300
C1061       C  0.33895187  0.92637271  0.03870250    -0.02500
C1062       C  0.30838282  0.91712148  0.06285177    -0.02500
C1063       C  0.31320080  0.90418684  0.10480544     0.07500
C1064       C  0.34808623  0.90459677  0.12554744    -0.02700
Br1065     Br  0.35230210  0.89838881  0.19024406    -0.01200
Br1066     Br  0.42591966  0.91186140  0.13118070    -0.01300
Br1067     Br  0.26042120  0.92428078  0.03889007    -0.01200
Br1068     Br  0.33218850  0.93929116  0.97700844    -0.01200
C1069       C  0.17800294  0.92720611  0.10688751    -0.02300
C1070       C  0.18899907  0.90370056  0.09049299     0.07300
C1071       C  0.17074674  0.89546871  0.04973223    -0.02500
C1072       C  0.13621893  0.90510487  0.03696839    -0.02500
C1073       C  0.12207727  0.92542796  0.06040621     0.07500
C1074       C  0.14321563  0.93650935  0.09525100    -0.02700
Br1075     Br  0.12453665  0.96521695  0.12703928    -0.01200
Br1076     Br  0.21133804  0.95150619  0.13122470    -0.01300
Br1077     Br  0.10928536  0.89142849  0.98569524    -0.01200
Br1078     Br  0.19740900  0.87806159  0.00244072    -0.01200
C1079       C  0.47193741  0.93745703  0.22368671    -0.02300
C1080       C  0.99969540  0.93493612  0.18996384     0.07300
C1081       C  0.02607243  0.91624638  0.19565350    -0.02500
C1082       C  0.02519756  0.90064204  0.23453382    -0.02500
C1083       C  0.99608522  0.90170352  0.26688832     0.07500
C1084       C  0.46990338  0.92100185  0.26145979    -0.02700
Br1085     Br  0.43004849  0.92547969  0.30435814    -0.01200
Br1086     Br  0.43480875  0.96252796  0.21637611    -0.01300
Br1087     Br  0.06731699  0.88072280  0.24619257    -0.01200
Br1088     Br  0.06489358  0.91252862  0.15103805    -0.01200
Zr1089     Zr  0.49923448  0.04534534  0.97604091     2.17500
O1090       O  0.00064338  0.08621260  0.00915764    -0.51800
O1091       O  0.49611977  0.05626844  0.89472548    -0.75000
O1092       O  0.56097160  0.06228572  0.96007558    -0.81800
O1093       O  0.89626645  0.03548392  0.97349746    -0.83600
O1094       O  0.60261312  0.03125285  0.96551166    -0.79200
O1095       O  0.93868311  0.06531026  0.96698696    -0.90800
O1096       O  0.00094952  0.02172621  0.85166439    -0.76800
O1097       O  0.53692738  0.01544640  0.93938095    -0.86300
O1098       O  0.96013256  0.01595022  0.94108611    -0.86000
O1099       O  0.53578727  0.02801713  0.03755848    -0.72700
O1100       O  0.96398620  0.02852959  0.03905409    -0.84900
Zr1101     Zr  0.99836315  0.45084814  0.02693867     2.26400
Zr1102     Zr  0.57208282  0.99738410  0.99988374     2.06300
Zr1103     Zr  0.92533027  0.99899571  0.00299463     2.10000
Zr1104     Zr  0.49785069  0.48653003  0.90445341     1.78800
O1105       O  0.88579082  0.01331247  0.06552890    -0.93700
O1106       O  0.55200354  0.47710744  0.85803471    -0.41500
O1107       O  0.96208766  0.46843235  0.96557600    -0.78100
O1108       O  0.53399194  0.46740897  0.96414411    -0.96800
O1109       O  0.53808520  0.47988205  0.06165297    -0.90100
O1110       O  0.96085917  0.48093557  0.06338790    -0.92900
C1111       C  0.99885136  0.04513177  0.85575951     1.00800
C1112       C  0.90537562  0.05744330  0.96407164     1.13700
C1113       C  0.59366135  0.05316147  0.95563972     1.04500
O1114       O  0.62173631  0.48338891  0.94965738    -0.95100
O1115       O  0.60116688  0.46061711  0.02536975    -0.90800
O1116       O  0.55832189  0.43195196  0.04289923    -0.84000
C1117       C  0.59158926  0.43978051  0.04081018     1.11200
O1118       O  0.00388342  0.04981751  0.13402549    -0.97100
Zr1119     Zr  0.50064422  0.00943410  0.09877319     1.88900
O1120       O  0.99929288  0.43939836  0.10821854    -0.73700
O1121       O  0.61450449  0.01231832  0.05868918    -0.53000
O1122       O  0.55649636  0.01353066  0.14466889    -0.97700
O1123       O  0.94888165  0.01797505  0.15005881    -0.54900
O1124       O  0.50034836  0.47400069  0.15167825    -0.74200
C1125       C  0.49993257  0.45056442  0.14733524     0.98100
O1126       O  0.99906173  0.41057005  0.99130229    -0.63100
O1127       O  0.87615041  0.48781826  0.94997994    -0.57900
O1128       O  0.93768505  0.43241355  0.03869899    -0.94500
O1129       O  0.89494763  0.46231846  0.02796122    -0.93000
O1130       O  0.94217442  0.48184493  0.85854015    -0.93300
O1131       O  0.99428970  0.44781628  0.86332734    -0.92100
C1132       C  0.90435140  0.44057732  0.03936654     1.17000
H1133       H  0.94445272  0.02315285  0.91771717     0.32900
H1134       H  0.54900969  0.45465216  0.95070181     0.43700
H1135       H  0.94523669  0.47386238  0.08679740     0.37300
H1136       H  0.55133780  0.04049566  0.05042450     0.33800
H1137       H  0.54546678  0.48233264  0.82628877     0.25500
H1138       H  0.63887506  0.00609991  0.04873639     0.31500
H1139       H  0.54903017  0.00956531  0.17678384     0.37400
H1140       H  0.95077628  0.48090075  0.82604766     0.31800
H1141       H  0.85393646  0.49613851  0.96217862     0.30700
H1142       H  0.86451890  0.00213636  0.06536688     0.32400
H1143       H  0.95812912  0.01422298  0.18154731     0.31400
H1144       H  0.50179900  0.43546235  0.88649092     0.35400
H1145       H  0.97883312  0.41109448  0.96837790     0.28100
H1146       H  0.50678538  0.09700804  0.98283350     0.32300
H1147       H  0.50683380  0.04705095  0.16770510     0.35200
H1148       H  0.88177535  0.49641471  0.92068784     0.27800
H1149       H  0.52168317  0.41023486  0.97222434     0.40700
H1150       H  0.61092649  0.47021416  0.93065312     0.30700
H1151       H  0.57064746  0.48904288  0.86827928     0.38300
H1152       H  0.93076554  0.00503632  0.14356308     0.30200
H1153       H  0.61596538  0.03017023  0.05414836     0.30300
H1154       H  0.52281934  0.08636510  0.02906639     0.30500
C1155       C  0.00234379  0.10006335  0.63913719     0.45000
H1156       H  0.00566085  0.08011998  0.63737449    -0.04100
C1157       C  0.99822537  0.14703740  0.64321278     0.45000
H1158       H  0.99485735  0.16671611  0.64745184    -0.04100
C1159       C  0.53424628  0.11302856  0.61316768    -0.17800
C1160       C  0.96649057  0.11047442  0.61708461    -0.17500
C1161       C  0.50239715  0.10937766  0.69014803    -0.17900
C1162       C  0.53172159  0.13840585  0.61366222    -0.17900
C1163       C  0.96488449  0.13564250  0.61898982    -0.17400
C1164       C  0.00091569  0.13485688  0.69194167    -0.17800
Zr1165     Zr  0.00103236  0.29786280  0.01882972     2.17500
O1166       O  0.50047183  0.33783520  0.98200165    -0.51800
O1167       O  0.00278637  0.31093199  0.09912735    -0.75000
O1168       O  0.94149756  0.31712114  0.03630656    -0.81800
O1169       O  0.60435335  0.28453318  0.02135399    -0.83600
O1170       O  0.89693537  0.28856979  0.02589459    -0.79200
O1171       O  0.56296426  0.31546119  0.02702348    -0.90800
O1172       O  0.99793152  0.27687113  0.14320651    -0.76800
O1173       O  0.96101821  0.26972069  0.05582847    -0.86300
O1174       O  0.53809290  0.26793515  0.05624361    -0.86000
O1175       O  0.96355235  0.28094533  0.95797109    -0.72700
O1176       O  0.53577874  0.27895636  0.95746377    -0.84900
Zr1177     Zr  0.99655802  0.20282252  0.97398526     2.26400
Zr1178     Zr  0.92481060  0.25208414  0.99610667     2.06300
Zr1179     Zr  0.57225902  0.24876889  0.99582313     2.10000
Zr1180     Zr  0.99822433  0.24039304  0.09359861     1.78800
O1181       O  0.61406803  0.25968574  0.93345258    -0.93700
O1182       O  0.94633481  0.23483069  0.14579954    -0.41500
O1183       O  0.53369529  0.22003275  0.03463197    -0.78100
O1184       O  0.96107305  0.22178598  0.03469205    -0.96800
O1185       O  0.95875151  0.23231684  0.93632481    -0.90100
O1186       O  0.53599487  0.23104117  0.93626882    -0.92900
C1187       C  0.00057049  0.30019373  0.13846722     1.00800
C1188       C  0.59594033  0.30673213  0.03004368     1.13700
C1189       C  0.90796032  0.30970038  0.03803916     1.04500
O1190       O  0.87470190  0.24273839  0.04903434    -0.95100
O1191       O  0.89351944  0.21515922  0.97527398    -0.90800
O1192       O  0.93551333  0.18508034  0.96099853    -0.84000
C1193       C  0.90239413  0.19354126  0.96257526     1.11200
O1194       O  0.49787283  0.30008854  0.86117674    -0.97100
Zr1195     Zr  0.99820748  0.26022671  0.89862069     1.88900
O1196       O  0.99904800  0.19066642  0.89307931    -0.73700
O1197       O  0.88327347  0.26585922  0.93507498    -0.53000
O1198       O  0.94163359  0.26429636  0.85404985    -0.97700
O1199       O  0.54969238  0.26688271  0.84618505    -0.54900
O1200       O  0.99903600  0.22435610  0.84723484    -0.74200
C1201       C  0.99925908  0.20105189  0.85319706     0.98100
O1202       O  0.49250553  0.16273970  0.01007920    -0.63100
O1203       O  0.61966823  0.23780612  0.05171913    -0.57900
O1204       O  0.55603084  0.18182689  0.96660672    -0.94500
O1205       O  0.60015956  0.21075678  0.97296655    -0.93000
O1206       O  0.55368867  0.23368573  0.13916610    -0.93300
O1207       O  0.49490656  0.20120816  0.13304693    -0.92100
C1208       C  0.58971053  0.18892122  0.96473415     1.17000
H1209       H  0.55407600  0.27506591  0.07921394     0.32900
H1210       H  0.94524719  0.20982957  0.04878258     0.43700
H1211       H  0.55147358  0.22312253  0.91361728     0.37300
H1212       H  0.94888879  0.29376537  0.94416098     0.33800
H1213       H  0.95479534  0.24110398  0.17612539     0.25500
H1214       H  0.85849022  0.26146143  0.94634101     0.31500
H1215       H  0.94799235  0.25841918  0.82260512     0.37400
H1216       H  0.54480901  0.23071133  0.17105921     0.31800
H1217       H  0.64249931  0.24535191  0.03989719     0.30700
H1218       H  0.63652536  0.24986322  0.93922017     0.32400
H1219       H  0.54021960  0.26259517  0.81506269     0.31400
H1220       H  0.99432864  0.18901452  0.10774625     0.35400
H1221       H  0.51418436  0.16167851  0.03072644     0.28100
H1222       H  0.02037194  0.33697688  0.95865180     0.32300
H1223       H  0.99137870  0.29700641  0.82841513     0.35200
H1224       H  0.61358265  0.24715770  0.08007344     0.27800
H1225       H  0.97137308  0.16400639  0.03159224     0.40700
H1226       H  0.88470715  0.23003524  0.06994696     0.30700
H1227       H  0.92774560  0.24685651  0.13528367     0.38300
H1228       H  0.56759416  0.25381443  0.85359987     0.30200
H1229       H  0.88363937  0.28391171  0.93630024     0.30300
H1230       H  0.97757497  0.33816609  0.96344699     0.30500
C1231       C  0.99774881  0.39685910  0.35760140     0.45000
H1232       H  0.99331854  0.41654510  0.35729177    -0.04100
C1233       C  0.00284294  0.35004832  0.36187927     0.45000
H1234       H  0.50452254  0.33050258  0.36779768    -0.04100
C1235       C  0.53591954  0.38849921  0.37644418    -0.17800
C1236       C  0.96684530  0.38496172  0.38705593    -0.17500
C1237       C  0.49554226  0.38494204  0.30919795    -0.17900
C1238       C  0.53742489  0.36325503  0.38082927    -0.17900
C1239       C  0.96967391  0.36002413  0.38949652    -0.17400
C1240       C  0.99789443  0.35923513  0.31059147    -0.17800
Zr1241     Zr  0.75173450  0.05055356  0.51576812     2.17500
O1242       O  0.75053566  0.09074219  0.47982574    -0.51800
O1243       O  0.75230514  0.06395508  0.59618316    -0.75000
O1244       O  0.69082706  0.06883383  0.53131713    -0.81800
O1245       O  0.85477104  0.03855827  0.51709672    -0.83600
O1246       O  0.64782351  0.03922415  0.52204809    -0.79200
O1247       O  0.81280381  0.06916964  0.52298231    -0.90800
O1248       O  0.74989931  0.03027893  0.64173052    -0.76800
O1249       O  0.71249279  0.02238138  0.55355589    -0.86300
O1250       O  0.78961563  0.02118134  0.55369556    -0.86000
O1251       O  0.71601021  0.03257522  0.45457980    -0.72700
O1252       O  0.78727651  0.03148738  0.45490516    -0.84900
Zr1253     Zr  0.75021074  0.45495409  0.47128639     2.26400
Zr1254     Zr  0.67788196  0.00369990  0.49364290     2.06300
Zr1255     Zr  0.82437614  0.00177288  0.49388940     2.10000
Zr1256     Zr  0.75028298  0.49353755  0.59168759     1.78800
O1257       O  0.86764602  0.01142336  0.43233667    -0.93700
O1258       O  0.69587371  0.48779747  0.63951953    -0.41500
O1259       O  0.78591066  0.47314633  0.53252813    -0.78100
O1260       O  0.71453981  0.47369439  0.53236327    -0.96800
O1261       O  0.71223202  0.48425338  0.43397000    -0.90100
O1262       O  0.78955834  0.48324120  0.43383989    -0.92900
C1263       C  0.75119982  0.05365890  0.63608774     1.00800
C1264       C  0.84589983  0.06070417  0.52566756     1.13700
C1265       C  0.65761316  0.06071763  0.53288026     1.04500
O1266       O  0.63335975  0.48939620  0.55031168    -0.95100
O1267       O  0.64493638  0.46927420  0.46587634    -0.90800
O1268       O  0.68823797  0.44064388  0.44853278    -0.84000
C1269       C  0.65468615  0.44872227  0.44915917     1.11200
O1270       O  0.75054413  0.05068720  0.35450431    -0.97100
Zr1271     Zr  0.75123651  0.01182923  0.39554840     1.88900
O1272       O  0.75341065  0.44139912  0.39128499    -0.73700
O1273       O  0.63327448  0.01953751  0.43817693    -0.53000
O1274       O  0.69531910  0.01640198  0.34982624    -0.97700
O1275       O  0.80428431  0.01698200  0.34495798    -0.54900
O1276       O  0.74984536  0.47519810  0.34560278    -0.74200
C1277       C  0.75144456  0.45186445  0.35156237     0.98100
O1278       O  0.74412619  0.41526042  0.50824458    -0.63100
O1279       O  0.87002864  0.49190450  0.55273966    -0.57900
O1280       O  0.81108774  0.43467682  0.46564917    -0.94500
O1281       O  0.85435472  0.46366904  0.47526903    -0.93000
O1282       O  0.80395771  0.48739446  0.64081156    -0.93300
O1283       O  0.74897916  0.45469326  0.63252323    -0.92100
C1284       C  0.84497695  0.44165139  0.46677097     1.17000
H1285       H  0.80538392  0.02864759  0.57647587     0.32900
H1286       H  0.69881080  0.46164079  0.54636924     0.43700
H1287       H  0.80553222  0.47526121  0.41171166     0.37300
H1288       H  0.70127122  0.04520793  0.44027742     0.33800
H1289       H  0.70196861  0.49542923  0.66961180     0.25500
H1290       H  0.60969201  0.02055872  0.45525097     0.31500
H1291       H  0.70239726  0.01149130  0.31800865     0.37400
H1292       H  0.79416380  0.48738147  0.67282412     0.31800
H1293       H  0.89227878  0.50110851  0.54381269     0.30700
H1294       H  0.89068145  0.00293755  0.44119657     0.32400
H1295       H  0.81609152  0.00069564  0.34322181     0.31400
H1296       H  0.75121358  0.44226389  0.60776312     0.35400
H1297       H  0.76526084  0.41417177  0.52976966     0.28100
H1298       H  0.74585323  0.10219679  0.50573023     0.32300
H1299       H  0.74952486  0.04649547  0.32116185     0.35200
H1300       H  0.86118787  0.50008216  0.58122396     0.27800
H1301       H  0.72247274  0.41703485  0.52878085     0.40700
H1302       H  0.60924925  0.49503260  0.53838409     0.30700
H1303       H  0.67702706  0.49869644  0.62582196     0.38300
H1304       H  0.82163605  0.02700194  0.36314091     0.30200
H1305       H  0.63999110  0.03664642  0.43184750     0.30300
H1306       H  0.72761498  0.09110099  0.46131554     0.30500
C1307       C  0.75023983  0.34988889  0.13848393     0.45000
H1308       H  0.74994511  0.33046520  0.13190630    -0.04100
C1309       C  0.74857958  0.39662204  0.14751617     0.45000
H1310       H  0.75074211  0.41615034  0.15295954    -0.04100
C1311       C  0.78518969  0.36276947  0.11904542    -0.17800
C1312       C  0.71701280  0.36181538  0.11351173    -0.17500
C1313       C  0.74663875  0.35724344  0.19050417    -0.17900
C1314       C  0.78382417  0.38760528  0.12370537    -0.17900
C1315       C  0.71680120  0.38723005  0.11597031    -0.17400
C1316       C  0.74561856  0.38291109  0.19505904    -0.17800
Zr1317     Zr  0.75324147  0.29808379  0.47991482     2.17500
O1318       O  0.75231685  0.33954982  0.51020201    -0.51800
O1319       O  0.75652530  0.30789159  0.39817614    -0.75000
O1320       O  0.81457424  0.31500891  0.46647899    -0.81800
O1321       O  0.64767464  0.28924429  0.48264849    -0.83600
O1322       O  0.85663974  0.28537962  0.48404510    -0.79200
O1323       O  0.69228776  0.31645191  0.46314166    -0.90800
O1324       O  0.74939031  0.27250937  0.35867456    -0.76800
O1325       O  0.79040989  0.26663251  0.44671943    -0.86300
O1326       O  0.71302790  0.26837526  0.44866111    -0.86000
O1327       O  0.78988196  0.28199976  0.54257785    -0.72700
O1328       O  0.71765257  0.28370918  0.54447272    -0.84900
Zr1329     Zr  0.74921494  0.20550578  0.53997777     2.26400
Zr1330     Zr  0.82517125  0.24948813  0.50909433     2.06300
Zr1331     Zr  0.67784375  0.25358516  0.51209252     2.10000
Zr1332     Zr  0.74948263  0.23793141  0.41404272     1.78800
O1333       O  0.63652498  0.27131549  0.56938550    -0.93700
O1334       O  0.80171926  0.22753476  0.36496688    -0.41500
O1335       O  0.71327006  0.22172833  0.47695025    -0.78100
O1336       O  0.78514598  0.21990248  0.47545643    -0.96800
O1337       O  0.79041117  0.23437347  0.57247800    -0.90100
O1338       O  0.71334934  0.23726547  0.57374906    -0.92900
C1339       C  0.75279056  0.29597030  0.36028787     1.00800
C1340       C  0.65840453  0.30952817  0.46590158     1.13700
C1341       C  0.84763577  0.30658030  0.46942358     1.04500
O1342       O  0.87432815  0.23926911  0.45513423    -0.95100
O1343       O  0.85397910  0.21089884  0.52714085    -0.90800
O1344       O  0.80868191  0.18450824  0.54699403    -0.84000
C1345       C  0.84274662  0.19008673  0.54123208     1.11200
O1346       O  0.76039783  0.30712076  0.63730044    -0.97100
Zr1347     Zr  0.75427749  0.26610883  0.60558266     1.88900
O1348       O  0.75190554  0.19717091  0.62239828    -0.73700
O1349       O  0.86676890  0.25845165  0.57296482    -0.53000
O1350       O  0.81094933  0.26899114  0.65022384    -0.97700
O1351       O  0.70310979  0.27767519  0.65570297    -0.54900
O1352       O  0.74977512  0.23304197  0.66226349    -0.74200
C1353       C  0.75041583  0.20961459  0.66003271     0.98100
O1354       O  0.74363878  0.16419710  0.50970418    -0.63100
O1355       O  0.63081020  0.24073012  0.45728042    -0.57900
O1356       O  0.68867890  0.18899678  0.56119666    -0.94500
O1357       O  0.64694501  0.21838104  0.54292610    -0.93000
O1358       O  0.69395674  0.23236278  0.36817910    -0.93300
O1359       O  0.74487110  0.19739223  0.38001504    -0.92100
C1360       C  0.65551715  0.19744413  0.55951658     1.17000
H1361       H  0.69738245  0.27494780  0.42478787     0.32900
H1362       H  0.79945665  0.20659203  0.46266622     0.43700
H1363       H  0.69772942  0.23139681  0.59826450     0.37300
H1364       H  0.80592380  0.29453593  0.55422140     0.33800
H1365       H  0.79141748  0.22644208  0.33327488     0.25500
H1366       H  0.89145214  0.25404497  0.56105110     0.31500
H1367       H  0.80367002  0.26552007  0.68259372     0.37400
H1368       H  0.70150961  0.23582919  0.33589865     0.31800
H1369       H  0.60772427  0.24032362  0.47543636     0.30700
H1370       H  0.61195959  0.27107519  0.55461777     0.32400
H1371       H  0.71127143  0.27339457  0.68739065     0.31400
H1372       H  0.74590035  0.18614223  0.40680369     0.37000
H1373       H  0.72387906  0.16545959  0.48623569     0.28100
H1374       H  0.75871778  0.34993454  0.48338197     0.32300
H1375       H  0.76364373  0.30496376  0.67109970     0.35200
H1376       H  0.63651062  0.22340452  0.45052605     0.27800
H1377       H  0.76615949  0.16138185  0.49116721     0.40700
H1378       H  0.86184954  0.23094827  0.42914077     0.30700
H1379       H  0.81690487  0.24243142  0.36455200     0.38300
H1380       H  0.68342183  0.26583601  0.64871417     0.30200
H1381       H  0.86710517  0.27645647  0.57536858     0.30300
H1382       H  0.77397806  0.34045536  0.53091523     0.30500
C1383       C  0.74418863  0.14844173  0.86182420     0.45000
H1384       H  0.74007446  0.16833945  0.86489814    -0.04100
C1385       C  0.75059064  0.10152110  0.85547836     0.45000
H1386       H  0.75331492  0.08145119  0.85316513    -0.04100
C1387       C  0.77975779  0.13868064  0.88555154    -0.17800
C1388       C  0.71219307  0.13476808  0.88483269    -0.17500
C1389       C  0.74547120  0.13946026  0.81076007    -0.17900
C1390       C  0.78312318  0.11347475  0.88204245    -0.17900
C1391       C  0.71541694  0.10974481  0.88210637    -0.17400
C1392       C  0.74904497  0.11419884  0.80686090    -0.17800
C1393       C  0.71612589  0.19084712  0.72636083    -0.02300
C1394       C  0.74926447  0.19536901  0.70338017     0.07300
C1395       C  0.78093801  0.18327798  0.71815378    -0.02500
C1396       C  0.77797644  0.16214499  0.74556931    -0.02500
C1397       C  0.74553779  0.15787974  0.77139933     0.07500
C1398       C  0.71562367  0.17443684  0.76406157    -0.02700
Br1399     Br  0.67394053  0.17609395  0.80419275    -0.01200
Br1400     Br  0.67191172  0.20743188  0.70657861    -0.01300
Br1401     Br  0.81896275  0.14035991  0.74732938    -0.01200
Br1402     Br  0.82721935  0.19989087  0.71131950    -0.01200
C1403       C  0.72476054  0.34442139  0.27111798    -0.02300
C1404       C  0.74434476  0.33826047  0.23062601     0.07300
C1405       C  0.76178033  0.31452306  0.23160909    -0.02500
C1406       C  0.76630619  0.30164507  0.27417406    -0.02500
C1407       C  0.75095058  0.31053163  0.31586238     0.07500
C1408       C  0.73095876  0.33269028  0.31381161    -0.02700
Br1409     Br  0.71175547  0.34833732  0.36873519    -0.01200
Br1410     Br  0.67926418  0.36109652  0.26467702    -0.01300
Br1411     Br  0.79713002  0.27276241  0.27592666    -0.01200
Br1412     Br  0.77430475  0.29546326  0.17727275    -0.01200
C1413       C  0.71821210  0.43364561  0.28341218    -0.02300
C1414       C  0.75012204  0.43538351  0.31032733     0.07300
C1415       C  0.77894813  0.41890785  0.30175708    -0.02500
C1416       C  0.77461596  0.39926286  0.27047721    -0.02500
C1417       C  0.74438058  0.39850156  0.23949747     0.07500
C1418       C  0.71594332  0.41625391  0.24718953    -0.02700
Br1419     Br  0.67082281  0.41605486  0.21359870    -0.01200
Br1420     Br  0.67721370  0.45513318  0.29699706    -0.01300
Br1421     Br  0.80732789  0.37216165  0.27742714    -0.01200
Br1422     Br  0.82628973  0.42584323  0.32781373    -0.01200
C1423       C  0.72558557  0.10347783  0.72462797    -0.02300
C1424       C  0.75097101  0.09955146  0.76139861     0.07300
C1425       C  0.77735625  0.08045403  0.75484325    -0.02500
C1426       C  0.77668213  0.06527650  0.71495068    -0.02500
C1427       C  0.75192719  0.06992817  0.67837415     0.07500
C1428       C  0.72873008  0.09063310  0.68224159    -0.02700
Br1429     Br  0.70199109  0.10282934  0.62934347    -0.01200
Br1430     Br  0.68161119  0.12253070  0.73301903    -0.01300
Br1431     Br  0.81280330  0.53946035  0.70831978    -0.01200
Br1432     Br  0.81653830  0.07484169  0.79814424    -0.01200
C1433       C  0.59221348  0.33401749  0.37654558    -0.02300
C1434       C  0.56842813  0.34901383  0.40324640     0.07300
C1435       C  0.57566203  0.35124540  0.45142816    -0.02500
C1436       C  0.60567612  0.33888691  0.47192359    -0.02500
C1437       C  0.62915100  0.32442587  0.44461690     0.07500
C1438       C  0.62121652  0.32109855  0.39744790    -0.02700
Br1439     Br  0.64891493  0.29761360  0.36132022    -0.01200
Br1440     Br  0.59148522  0.33426809  0.31031525    -0.01300
Br1441     Br  0.61461586  0.34141412  0.53769885    -0.01200
Br1442     Br  0.54770901  0.37331773  0.48922480    -0.01200
C1443       C  0.92256140  0.32540721  0.38791330    -0.02300
C1444       C  0.94144410  0.34381890  0.41324770     0.07300
C1445       C  0.92938684  0.34854262  0.45945032    -0.02500
C1446       C  0.89710706  0.33772988  0.47693077    -0.02500
C1447       C  0.87804033  0.32073966  0.45012812     0.07500
C1448       C  0.89154541  0.31389950  0.40662760    -0.02700
Br1449     Br  0.86612516  0.28878943  0.37198269    -0.01200
Br1450     Br  0.93372241  0.31721900  0.32503085    -0.01300
Br1451     Br  0.87876640  0.34569057  0.53792259    -0.01200
Br1452     Br  0.95721754  0.36829910  0.50126374    -0.01200
C1453       C  0.94245357  0.41818008  0.44066349    -0.02300
C1454       C  0.93542048  0.39943266  0.40837421     0.07300
C1455       C  0.89827425  0.39323583  0.39963237    -0.02500
C1456       C  0.86929998  0.40370817  0.42551571    -0.02500
C1457       C  0.87582677  0.42429318  0.45384672     0.07500
C1458       C  0.91316003  0.43040365  0.46324999    -0.02700
Br1459     Br  0.92573486  0.45353315  0.51118626    -0.01200
Br1460     Br  0.99240327  0.42681075  0.45606276    -0.01300
Br1461     Br  0.82184856  0.38786680  0.42399344    -0.01200
Br1462     Br  0.88560478  0.37334106  0.34728657    -0.01200
C1463       C  0.62427305  0.40886897  0.43196558    -0.02300
C1464       C  0.62490415  0.43423081  0.42749560     0.07300
C1465       C  0.59831886  0.44539299  0.39796301    -0.02500
C1466       C  0.56949054  0.43135466  0.37821121    -0.02500
C1467       C  0.56833418  0.40570978  0.38684117     0.07500
C1468       C  0.60202040  0.39582223  0.40189752    -0.02700
Br1469     Br  0.63185607  0.38479644  0.35233381    -0.01200
Br1470     Br  0.65951381  0.39109150  0.46865936    -0.01300
Br1471     Br  0.54013891  0.44721956  0.33116827    -0.01200
Br1472     Br  0.60348002  0.47903058  0.37964363    -0.01200
C1473       C  0.65493303  0.17447158  0.96710821    -0.02300
C1474       C  0.61907942  0.17175403  0.94931518     0.07300
C1475       C  0.61369420  0.15616449  0.91107065    -0.02500
C1476       C  0.64377616  0.14366962  0.89125485    -0.02500
C1477       C  0.68009389  0.14802347  0.90659643     0.07500
C1478       C  0.68534406  0.16469426  0.94339810    -0.02700
Br1479     Br  0.73346735  0.17471023  0.96308532    -0.01200
Br1480     Br  0.66254196  0.19003365  0.02632610    -0.01300
Br1481     Br  0.63526965  0.12329279  0.83853447    -0.01200
Br1482     Br  0.56603139  0.15333304  0.88247245    -0.01200
C1483       C  0.85412240  0.18755675  0.90380967    -0.02300
C1484       C  0.87178017  0.17892686  0.94389820     0.07300
C1485       C  0.85619570  0.15961641  0.96884922    -0.02500
C1486       C  0.82347273  0.14859742  0.95298773    -0.02500
C1487       C  0.80787936  0.15508170  0.90938640     0.07500
C1488       C  0.82207168  0.17627251  0.88727144    -0.02700
Br1489     Br  0.79846771  0.19214183  0.83615805    -0.01200
Br1490     Br  0.87498007  0.21497236  0.87040491    -0.01300
Br1491     Br  0.79719171  0.12809638  0.99556576    -0.01200
Br1492     Br  0.87913646  0.14883305  0.02552089    -0.01200
C1493       C  0.64963504  0.34971864  0.10788057    -0.02300
C1494       C  0.68636113  0.34631732  0.09315277     0.07300
C1495       C  0.69292234  0.32870573  0.05797303    -0.02500
C1496       C  0.66318526  0.31805119  0.03388214    -0.02500
C1497       C  0.62638695  0.32223707  0.04823321     0.07500
C1498       C  0.62005424  0.33807250  0.08589582    -0.02700
Br1499     Br  0.57116155  0.34324251  0.11052054    -0.01200
Br1500     Br  0.63895956  0.36827250  0.16166218    -0.01300
Br1501     Br  0.67342302  0.29929706  0.97849058    -0.01200
Br1502     Br  0.74196912  0.31901255  0.04043922    -0.01200
C1503       C  0.87091843  0.32253481  0.10551008    -0.02300
C1504       C  0.87958272  0.32549869  0.05853563     0.07300
C1505       C  0.85721729  0.34020757  0.03043046    -0.02500
C1506       C  0.82554069  0.35149370  0.04918548    -0.02500
C1507       C  0.81754761  0.34964163  0.09737545     0.07500
C1508       C  0.84207293  0.33600179  0.12540792    -0.02700
Br1509     Br  0.83995583  0.33698005  0.19150915    -0.01200
Br1510     Br  0.89716465  0.29856854  0.14221676    -0.01300
Br1511     Br  0.79299563  0.36776354  0.00685378    -0.01200
Br1512     Br  0.86926633  0.34348220  0.96552620    -0.01200
C1513       C  0.51454073  0.31872330  0.26448257    -0.02300
C1514       C  0.99636226  0.34211601  0.26779458     0.07300
C1515       C  0.97508557  0.34889030  0.22854423    -0.02500
C1516       C  0.97922210  0.33694254  0.18541752    -0.02500
C1517       C  0.00086386  0.31558118  0.18154223     0.07500
C1518       C  0.51976127  0.30737006  0.22104162    -0.02700
Br1519     Br  0.55568290  0.28130062  0.21530357    -0.01200
Br1520     Br  0.52344822  0.29646933  0.31566645    -0.01300
Br1521     Br  0.95486514  0.35049857  0.13197003    -0.01200
Br1522     Br  0.93115187  0.36808756  0.23676308    -0.01200
C1523       C  0.58635444  0.14772881  0.55968585    -0.02300
C1524       C  0.55806295  0.15609895  0.58900968     0.07300
C1525       C  0.55824932  0.18170258  0.59646784    -0.02500
C1526       C  0.59190808  0.19437381  0.59340442    -0.02500
C1527       C  0.62405217  0.18251019  0.57621413     0.07500
C1528       C  0.62140548  0.15765733  0.56420099    -0.02700
Br1529     Br  0.66117247  0.13977912  0.53597438    -0.01200
Br1530     Br  0.57439418  0.15111719  0.49506555    -0.01300
Br1531     Br  0.59384511  0.22723234  0.61725959    -0.01200
Br1532     Br  0.51389440  0.20126008  0.59489154    -0.01200
C1533       C  0.90443615  0.15805521  0.62380046    -0.02300
C1534       C  0.93484717  0.15083475  0.59721851     0.07300
C1535       C  0.93452856  0.15673250  0.54942902    -0.02500
C1536       C  0.90380853  0.16874114  0.52947690    -0.02500
C1537       C  0.87174988  0.17255830  0.55596561     0.07500
C1538       C  0.87153787  0.16457982  0.60192258    -0.02700
Br1539     Br  0.82593716  0.15754563  0.63144324    -0.01200
Br1540     Br  0.91002974  0.16584017  0.68810212    -0.01300
Br1541     Br  0.90442571  0.17831813  0.46518148    -0.01200
Br1542     Br  0.97724567  0.15186063  0.51233377    -0.01200
C1543       C  0.86967775  0.09003145  0.58498739    -0.02300
C1544       C  0.87597034  0.07614978  0.54456148     0.07300
C1545       C  0.91278813  0.07127121  0.53134941    -0.02500
C1546       C  0.94220286  0.07870370  0.55957001    -0.02500
C1547       C  0.93602573  0.09541236  0.59603077     0.07500
C1548       C  0.89942046  0.09859503  0.61129233    -0.02700
Br1549     Br  0.89005031  0.10687011  0.67479943    -0.01200
Br1550     Br  0.82067163  0.09589422  0.60791182    -0.01300
Br1551     Br  0.98537963  0.05820461  0.55852020    -0.01200
Br1552     Br  0.92391006  0.05421145  0.47440763    -0.01200
C1553       C  0.56825745  0.09542269  0.54289794    -0.02300
C1554       C  0.56506769  0.09837461  0.59154278     0.07300
C1555       C  0.59109266  0.08607902  0.61968719    -0.02500
C1556       C  0.62104854  0.07366249  0.60000513    -0.02500
C1557       C  0.62803219  0.07571577  0.55245668     0.07500
C1558       C  0.60090621  0.08586130  0.52354568    -0.02700
Br1559     Br  0.60776544  0.08534943  0.45730643    -0.01200
Br1560     Br  0.52723277  0.10119139  0.50235422    -0.01300
Br1561     Br  0.64966755  0.05093704  0.63715995    -0.01200
Br1562     Br  0.58554630  0.08355254  0.68484868    -0.01200
C1563       C  0.97427671  0.14899069  0.77068503    -0.02300
C1564       C  0.00073889  0.15121408  0.73487492     0.07300
C1565       C  0.52775270  0.16979749  0.73987815    -0.02500
C1566       C  0.52681549  0.18636854  0.77751399    -0.02500
C1567       C  0.99937392  0.18461916  0.81164774     0.07500
C1568       C  0.97373783  0.16552168  0.80836096    -0.02700
Br1569     Br  0.93724340  0.16227581  0.85599126    -0.01200
Br1570     Br  0.93840834  0.12350372  0.77001908    -0.01300
Br1571     Br  0.56591909  0.20969149  0.78531151    -0.01200
Br1572     Br  0.57123948  0.16954543  0.70191157    -0.01200
C1573       C  0.83804919  0.06866921  0.95842903    -0.02300
C1574       C  0.87503634  0.07367933  0.94629662     0.07300
C1575       C  0.88157359  0.09162304  0.91211399    -0.02500
C1576       C  0.85183694  0.10410733  0.89104311    -0.02500
C1577       C  0.81485417  0.09862109  0.90211163     0.07500
C1578       C  0.80858000  0.07953772  0.93416191    -0.02700
Br1579     Br  0.76004680  0.06772309  0.94719781    -0.01200
Br1580     Br  0.82652052  0.04841607  0.01143257    -0.01300
Br1581     Br  0.86234152  0.12682641  0.84289703    -0.01200
Br1582     Br  0.93093972  0.09874201  0.89149893    -0.01200
C1583       C  0.67447378  0.09617644  0.94935311    -0.02300
C1584       C  0.68741483  0.09251270  0.90326952     0.07300
C1585       C  0.67048977  0.07395139  0.87644431    -0.02500
C1586       C  0.63931669  0.06165958  0.89351466    -0.02500
C1587       C  0.62391997  0.06801857  0.93671397     0.07500
C1588       C  0.64200215  0.08492791  0.96495480    -0.02700
Br1589     Br  0.62322667  0.09149740  0.02634178    -0.01200
Br1590     Br  0.70317403  0.11373062  0.99417409    -0.01300
Br1591     Br  0.61673626  0.03619028  0.85704728    -0.01200
Br1592     Br  0.68681348  0.06606696  0.81470504    -0.01200
C1593       C  0.52335213  0.08120206  0.81133130    -0.02300
C1594       C  0.50028369  0.06068599  0.81298676     0.07300
C1595       C  0.97864634  0.05540504  0.77394983    -0.02500
C1596       C  0.98032737  0.07019066  0.73361755    -0.02500
C1597       C  0.50290612  0.09160619  0.73183509     0.07500
C1598       C  0.52546976  0.09590435  0.77123466    -0.02700
Br1599     Br  0.56384640  0.11950950  0.77007181    -0.01200
Br1600     Br  0.55322416  0.08925581  0.86426625    -0.01300
Br1601     Br  0.95030400  0.05945123  0.68291308    -0.01200
Br1602     Br  0.94363853  0.02897951  0.77743795    -0.01200
C1603       C  0.87863933  0.41388348  0.10182374    -0.02300
C1604       C  0.87439997  0.42511390  0.05823686     0.07300
C1605       C  0.83889890  0.42639649  0.03862525    -0.02500
C1606       C  0.80831152  0.41716939  0.06277668    -0.02500
C1607       C  0.81312132  0.40423542  0.10474217     0.07500
C1608       C  0.84800156  0.40463892  0.12549419    -0.02700
Br1609     Br  0.85221251  0.39838921  0.19018039    -0.01200
Br1610     Br  0.92583425  0.41187124  0.13118521    -0.01300
Br1611     Br  0.76035749  0.42434120  0.03875367    -0.01200
Br1612     Br  0.83216388  0.43924260  0.97686527    -0.01200
C1613       C  0.67794128  0.42717949  0.10692709    -0.02300
C1614       C  0.68896753  0.40369040  0.09050168     0.07300
C1615       C  0.67074295  0.39546375  0.04971958    -0.02500
C1616       C  0.63620509  0.40508796  0.03695578    -0.02500
C1617       C  0.62202635  0.42538789  0.06043742     0.07500
C1618       C  0.64314644  0.43646742  0.09530369    -0.02700
Br1619     Br  0.62446082  0.46517464  0.12709433    -0.01200
Br1620     Br  0.71125708  0.45148728  0.13126250    -0.01300
Br1621     Br  0.60929779  0.39142658  0.98564618    -0.01200
Br1622     Br  0.69745396  0.37807535  0.00244256    -0.01200
C1623       C  0.97198813  0.43746305  0.22370920    -0.02300
C1624       C  0.49973886  0.43493195  0.18998148     0.07300
C1625       C  0.52610504  0.41623708  0.19566652    -0.02500
C1626       C  0.52523502  0.40063987  0.23455557    -0.02500
C1627       C  0.49612399  0.40171103  0.26691442     0.07500
C1628       C  0.96994516  0.42100920  0.26147944    -0.02700
Br1629     Br  0.93005748  0.42547186  0.30433703    -0.01200
Br1630     Br  0.93486390  0.46253472  0.21639851    -0.01300
Br1631     Br  0.56733036  0.38068859  0.24616370    -0.01200
Br1632     Br  0.56485981  0.41247258  0.15097845    -0.01200
Zr1633     Zr  0.49924574  0.54533390  0.97605795     2.17500
O1634       O  0.00051863  0.58618498  0.00922976    -0.51800
O1635       O  0.49616601  0.55628957  0.89475748    -0.75000
O1636       O  0.56097651  0.56228474  0.96009750    -0.81800
O1637       O  0.89623963  0.53544326  0.97346924    -0.83600
O1638       O  0.60266155  0.53128040  0.96568777    -0.79200
O1639       O  0.93867385  0.56524502  0.96682869    -0.90800
O1640       O  0.00101189  0.52175783  0.85167497    -0.76800
O1641       O  0.53700222  0.51546806  0.93942672    -0.86300
O1642       O  0.96018258  0.51593593  0.94106723    -0.86000
O1643       O  0.53581004  0.52802438  0.03758922    -0.72700
O1644       O  0.96401077  0.52850977  0.03907257    -0.84900
Zr1645     Zr  0.99838192  0.95083611  0.02691595     2.26400
Zr1646     Zr  0.57212384  0.49737893  0.99994868     2.06300
Zr1647     Zr  0.92535576  0.49898159  0.00295369     2.10000
Zr1648     Zr  0.49772509  0.98650772  0.90446143     1.78800
O1649       O  0.88578571  0.51314292  0.06558913    -0.93700
O1650       O  0.55142217  0.97689448  0.85733702    -0.41500
O1651       O  0.96202900  0.96842402  0.96562168    -0.78100
O1652       O  0.53397875  0.96740036  0.96407626    -0.96800
O1653       O  0.53805449  0.97990363  0.06161372    -0.90100
O1654       O  0.96085745  0.98091986  0.06337888    -0.92900
C1655       C  0.99889761  0.54516157  0.85578348     1.00800
C1656       C  0.90535898  0.55738905  0.96396497     1.13700
C1657       C  0.59368589  0.55317789  0.95574919     1.04500
O1658       O  0.62177936  0.98358051  0.94955851    -0.95100
O1659       O  0.60121143  0.96063749  0.02523956    -0.90800
O1660       O  0.55837194  0.93199710  0.04292311    -0.84000
C1661       C  0.59163918  0.93981744  0.04076705     1.11200
O1662       O  0.00407522  0.54967443  0.13454348    -0.97100
Zr1663     Zr  0.50070474  0.50941694  0.09879706     1.88900
O1664       O  0.99927506  0.93941430  0.10820636    -0.73700
O1665       O  0.61470057  0.51226729  0.05862620    -0.53000
O1666       O  0.55684918  0.51333260  0.14418931    -0.97700
O1667       O  0.94913933  0.51797985  0.15037198    -0.54900
O1668       O  0.50029336  0.97401653  0.15167227    -0.74200
C1669       C  0.49989386  0.95057828  0.14732479     0.98100
O1670       O  0.99943074  0.91045438  0.99167247    -0.63100
O1671       O  0.87605307  0.98777469  0.95018940    -0.57900
O1672       O  0.93770192  0.93236702  0.03852179    -0.94500
O1673       O  0.89499299  0.96233699  0.02820048    -0.93000
O1674       O  0.94184623  0.98194854  0.85891365    -0.93300
O1675       O  0.99363864  0.94765919  0.86389260    -0.92100
C1676       C  0.90438842  0.94056359  0.03940774     1.17000
H1677       H  0.94450550  0.52313198  0.91768096     0.32900
H1678       H  0.54901335  0.95465891  0.95061032     0.43700
H1679       H  0.94525334  0.97383894  0.08679113     0.37300
H1680       H  0.55135106  0.54050624  0.05045194     0.33800
H1681       H  0.54477846  0.98232681  0.82575166     0.25500
H1682       H  0.63909591  0.50625430  0.04832590     0.31500
H1683       H  0.54957507  0.50930953  0.17634639     0.37400
H1684       H  0.95032867  0.98091862  0.82638373     0.31800
H1685       H  0.85386841  0.99612546  0.96239938     0.30700
H1686       H  0.86421395  0.50222895  0.06477826     0.32400
H1687       H  0.95836580  0.51398032  0.18176411     0.31400
H1688       H  0.50124350  0.93536899  0.88714036     0.35400
H1689       H  0.97912821  0.91080798  0.96884917     0.28100
H1690       H  0.50695995  0.59697471  0.98301807     0.32300
H1691       H  0.50734725  0.54678024  0.16814684     0.35200
H1692       H  0.88165011  0.99633174  0.92085101     0.27800
H1693       H  0.52200018  0.91016935  0.97248403     0.40700
H1694       H  0.61076028  0.97085428  0.92966680     0.30700
H1695       H  0.57032689  0.98864254  0.86760657     0.38300
H1696       H  0.93082819  0.50519944  0.14362107     0.30200
H1697       H  0.61587946  0.53015323  0.05442106     0.30300
H1698       H  0.52250249  0.58628042  0.02947055     0.30500
C1699       C  0.00235961  0.60008368  0.63914594     0.45000
H1700       H  0.00566667  0.58013987  0.63738835    -0.04100
C1701       C  0.99827279  0.64705975  0.64321090     0.45000
H1702       H  0.99492247  0.66674167  0.64743904    -0.04100
C1703       C  0.53426340  0.61303749  0.61315186    -0.17800
C1704       C  0.96650442  0.61050307  0.61710635    -0.17500
C1705       C  0.50242870  0.60940254  0.69015624    -0.17900
C1706       C  0.53175215  0.63841410  0.61363791    -0.17900
C1707       C  0.96491401  0.63567112  0.61901635    -0.17400
C1708       C  0.00096550  0.63488259  0.69194314    -0.17800
Zr1709     Zr  0.00103837  0.79785367  0.01884200     2.17500
O1710       O  0.50048491  0.83783407  0.98204347    -0.51800
O1711       O  0.00281707  0.81091214  0.09914206    -0.75000
O1712       O  0.94151256  0.81711166  0.03636405    -0.81800
O1713       O  0.60436050  0.78454175  0.02133258    -0.83600
O1714       O  0.89694669  0.78857148  0.02587446    -0.79200
O1715       O  0.56296041  0.81546076  0.02703345    -0.90800
O1716       O  0.99794886  0.77684948  0.14321735    -0.76800
O1717       O  0.96101061  0.76971283  0.05582400    -0.86300
O1718       O  0.53808693  0.76792002  0.05626594    -0.86000
O1719       O  0.96356288  0.78094809  0.95795984    -0.72700
O1720       O  0.53580216  0.77895761  0.95747944    -0.84900
Zr1721     Zr  0.99655438  0.70282176  0.97399821     2.26400
Zr1722     Zr  0.92481002  0.75208627  0.99608388     2.06300
Zr1723     Zr  0.57226793  0.74876548  0.99584862     2.10000
Zr1724     Zr  0.99819875  0.74037546  0.09360060     1.78800
O1725       O  0.61405988  0.75966783  0.93345092    -0.93700
O1726       O  0.94623972  0.73478468  0.14568192    -0.41500
O1727       O  0.53369121  0.72003061  0.03464397    -0.78100
O1728       O  0.96104719  0.72177904  0.03468309    -0.96800
O1729       O  0.95877121  0.73232183  0.93631907    -0.90100
O1730       O  0.53600726  0.73103721  0.93629551    -0.92900
C1731       C  0.00059938  0.80017173  0.13847931     1.00800
C1732       C  0.59594119  0.80673939  0.03002884     1.13700
C1733       C  0.90797341  0.80969292  0.03806710     1.04500
O1734       O  0.87471548  0.74271866  0.04902168    -0.95100
O1735       O  0.89351670  0.71518426  0.97515387    -0.90800
O1736       O  0.93549942  0.68508366  0.96100074    -0.84000
C1737       C  0.90238478  0.69355961  0.96249834     1.11200
O1738       O  0.49779849  0.80007795  0.86114016    -0.97100
Zr1739     Zr  0.99823953  0.76022743  0.89862731     1.88900
O1740       O  0.99904571  0.69068231  0.89308991    -0.73700
O1741       O  0.88316384  0.76582635  0.93514129    -0.53000
O1742       O  0.94169115  0.76422667  0.85398919    -0.97700
O1743       O  0.54973857  0.76686110  0.84619992    -0.54900
O1744       O  0.99910385  0.72436753  0.84723748    -0.74200
C1745       C  0.99929764  0.70106544  0.85320713     0.98100
O1746       O  0.49262290  0.66273305  0.01009608    -0.63100
O1747       O  0.61971273  0.73781134  0.05170443    -0.57900
O1748       O  0.55601902  0.68182248  0.96663647    -0.94500
O1749       O  0.60015374  0.71074651  0.97301832    -0.93000
O1750       O  0.55360317  0.73361099  0.13925517    -0.93300
O1751       O  0.49488971  0.70118313  0.13302889    -0.92100
C1752       C  0.58969938  0.68891355  0.96477531     1.17000
H1753       H  0.55406958  0.77504769  0.07923176     0.32900
H1754       H  0.94520994  0.70982067  0.04876149     0.43700
H1755       H  0.55149309  0.72311446  0.91364447     0.37300
H1756       H  0.94890249  0.79376905  0.94414644     0.33800
H1757       H  0.95459233  0.74115990  0.17597737     0.25500
H1758       H  0.85838647  0.76152242  0.94657093     0.31500
H1759       H  0.94813007  0.75845303  0.82250195     0.37400
H1760       H  0.54468849  0.73069777  0.17115390     0.31800
H1761       H  0.64253536  0.74536452  0.03986262     0.30700
H1762       H  0.63652522  0.74985566  0.93923136     0.32400
H1763       H  0.54024640  0.76262331  0.81506304     0.31400
H1764       H  0.99354266  0.68902121  0.10772340     0.35400
H1765       H  0.51420292  0.66175355  0.03092068     0.28100
H1766       H  0.02046559  0.83700910  0.95879743     0.32300
H1767       H  0.99154603  0.79696114  0.82831178     0.35200
H1768       H  0.61363551  0.74715998  0.08006181     0.27800
H1769       H  0.97137160  0.66393099  0.03143432     0.40700
H1770       H  0.88461975  0.72986547  0.06967400     0.30700
H1771       H  0.92758993  0.74672545  0.13499570     0.38300
H1772       H  0.56759535  0.75375534  0.85355624     0.30200
H1773       H  0.88364654  0.78387806  0.93621108     0.30300
H1774       H  0.97765006  0.83813741  0.96336952     0.30500
C1775       C  0.99774820  0.89685326  0.35757405     0.45000
H1776       H  0.99331145  0.91653817  0.35726408    -0.04100
C1777       C  0.00285940  0.85004355  0.36186399     0.45000
H1778       H  0.50454948  0.83049854  0.36778552    -0.04100
C1779       C  0.53592615  0.88849943  0.37640173    -0.17800
C1780       C  0.96686074  0.88495349  0.38704644    -0.17500
C1781       C  0.49552449  0.88493334  0.30917597    -0.17900
C1782       C  0.53744007  0.86325527  0.38078520    -0.17900
C1783       C  0.96969979  0.86001767  0.38950278    -0.17400
C1784       C  0.99789564  0.85922524  0.31057779    -0.17800
Zr1785     Zr  0.75174895  0.55056935  0.51575611     2.17500
O1786       O  0.75052182  0.59076095  0.47982359    -0.51800
O1787       O  0.75231636  0.56396619  0.59618165    -0.75000
O1788       O  0.69084381  0.56884586  0.53130441    -0.81800
O1789       O  0.85478854  0.53859824  0.51708440    -0.83600
O1790       O  0.64783662  0.53923870  0.52202963    -0.79200
O1791       O  0.81281063  0.56920243  0.52295307    -0.90800
O1792       O  0.74997131  0.53028715  0.64172638    -0.76800
O1793       O  0.71251504  0.52239055  0.55354676    -0.86300
O1794       O  0.78964370  0.52119917  0.55367256    -0.86000
O1795       O  0.71601050  0.53259195  0.45457606    -0.72700
O1796       O  0.78729625  0.53152110  0.45487222    -0.84900
Zr1797     Zr  0.75019148  0.95491969  0.47129847     2.26400
Zr1798     Zr  0.67789014  0.50371063  0.49364199     2.06300
Zr1799     Zr  0.82440901  0.50181014  0.49384947     2.10000
Zr1800     Zr  0.75024578  0.99352541  0.59170275     1.78800
O1801       O  0.86765903  0.51148557  0.43228697    -0.93700
O1802       O  0.69578794  0.98778943  0.63945137    -0.41500
O1803       O  0.78586622  0.97311212  0.53255946    -0.78100
O1804       O  0.71452465  0.97367734  0.53236666    -0.96800
O1805       O  0.71221595  0.98422379  0.43398348    -0.90100
O1806       O  0.78954165  0.98320433  0.43386672    -0.92900
C1807       C  0.75124665  0.55366812  0.63608785     1.00800
C1808       C  0.84591086  0.56074401  0.52564393     1.13700
C1809       C  0.65763071  0.56073033  0.53286651     1.04500
O1810       O  0.63326862  0.98938593  0.55021026    -0.95100
O1811       O  0.64492525  0.96926943  0.46588298    -0.90800
O1812       O  0.68821702  0.94063530  0.44852436    -0.84000
C1813       C  0.65466928  0.94871909  0.44915883     1.11200
O1814       O  0.75049210  0.55075151  0.35457344    -0.97100
Zr1815     Zr  0.75124083  0.51186341  0.39552254     1.88900
O1816       O  0.75341509  0.94136063  0.39130139    -0.73700
O1817       O  0.63321548  0.51950909  0.43822254    -0.53000
O1818       O  0.69529380  0.51644548  0.34986382    -0.97700
O1819       O  0.80421324  0.51701982  0.34480242    -0.54900
O1820       O  0.74984234  0.97516669  0.34564073    -0.74200
C1821       C  0.75144873  0.95183385  0.35158626     0.98100
O1822       O  0.74409103  0.91521814  0.50822802    -0.63100
O1823       O  0.86995001  0.99184756  0.55282211    -0.57900
O1824       O  0.81108423  0.93465875  0.46558274    -0.94500
O1825       O  0.85434498  0.96364499  0.47529453    -0.93000
O1826       O  0.80400204  0.98739726  0.64069217    -0.93300
O1827       O  0.74890189  0.95473303  0.63270927    -0.92100
C1828       C  0.84497400  0.94163283  0.46674198     1.17000
H1829       H  0.80541238  0.52866673  0.57645167     0.32900
H1830       H  0.69878294  0.96162381  0.54637944     0.43700
H1831       H  0.80551524  0.97522820  0.41174649     0.37300
H1832       H  0.70125700  0.54522466  0.44028263     0.33800
H1833       H  0.70180013  0.99550168  0.66949696     0.25500
H1834       H  0.60965370  0.52054893  0.45533691     0.31500
H1835       H  0.70233847  0.51150929  0.31805098     0.37400
H1836       H  0.79425930  0.98737421  0.67273014     0.31800
H1837       H  0.89221829  0.00102864  0.54388931     0.30700
H1838       H  0.89067512  0.50295605  0.44107338     0.32400
H1839       H  0.81607179  0.50074582  0.34313500     0.31400
H1840       H  0.75147174  0.94227869  0.60804137     0.35400
H1841       H  0.76536242  0.91404759  0.52952302     0.28100
H1842       H  0.74600169  0.60222103  0.50576099     0.32300
H1843       H  0.74940506  0.54658312  0.32122604     0.35200
H1844       H  0.86111859  0.00004837  0.58128582     0.27800
H1845       H  0.72258854  0.91704189  0.52899796     0.40700
H1846       H  0.60917049  0.99499048  0.53819298     0.30700
H1847       H  0.67691519  0.99862033  0.62561961     0.38300
H1848       H  0.82155213  0.52708929  0.36290309     0.30200
H1849       H  0.63993833  0.53661066  0.43183132     0.30300
H1850       H  0.72751613  0.59115921  0.46147841     0.30500
C1851       C  0.75023475  0.84987912  0.13851165     0.45000
H1852       H  0.74991606  0.83045560  0.13193339    -0.04100
C1853       C  0.74861602  0.89661463  0.14751983     0.45000
H1854       H  0.75078735  0.91614479  0.15294889    -0.04100
C1855       C  0.78521080  0.86274001  0.11911106    -0.17800
C1856       C  0.71703267  0.86181475  0.11350050    -0.17500
C1857       C  0.74662417  0.85724462  0.19052626    -0.17900
C1858       C  0.78387814  0.88757553  0.12377142    -0.17900
C1859       C  0.71683659  0.88723134  0.11595486    -0.17400
C1860       C  0.74561992  0.88291287  0.19506120    -0.17800
Zr1861     Zr  0.75324501  0.79808754  0.47992822     2.17500
O1862       O  0.75237888  0.83955518  0.51021444    -0.51800
O1863       O  0.75653237  0.80789258  0.39819713    -0.75000
O1864       O  0.81458794  0.81500424  0.46648079    -0.81800
O1865       O  0.64765569  0.78924503  0.48266519    -0.83600
O1866       O  0.85665261  0.78536583  0.48399926    -0.79200
O1867       O  0.69227688  0.81644562  0.46314555    -0.90800
O1868       O  0.74935651  0.77251472  0.35869129    -0.76800
O1869       O  0.79039704  0.76663310  0.44671785    -0.86300
O1870       O  0.71301917  0.76838240  0.44867642    -0.86000
O1871       O  0.78989734  0.78199034  0.54257084    -0.72700
O1872       O  0.71764674  0.78371755  0.54447889    -0.84900
Zr1873     Zr  0.74922792  0.70550856  0.53998006     2.26400
Zr1874     Zr  0.82517762  0.74947671  0.50906220     2.06300
Zr1875     Zr  0.67783847  0.75358911  0.51210786     2.10000
Zr1876     Zr  0.74946029  0.73793445  0.41405262     1.78800
O1877       O  0.63656440  0.77131472  0.56945746    -0.93700
O1878       O  0.80169087  0.72755391  0.36495959    -0.41500
O1879       O  0.71326589  0.72173464  0.47697001    -0.78100
O1880       O  0.78514010  0.71989648  0.47544235    -0.96800
O1881       O  0.79041916  0.73438202  0.57247035    -0.90100
O1882       O  0.71335533  0.73726552  0.57374803    -0.92900
C1883       C  0.75277771  0.79597405  0.36031055     1.00800
C1884       C  0.65839025  0.80952532  0.46590553     1.13700
C1885       C  0.84764974  0.80657184  0.46940203     1.04500
O1886       O  0.87419463  0.73918118  0.45494714    -0.95100
O1887       O  0.85397120  0.71089191  0.52718010    -0.90800
O1888       O  0.80868054  0.68448972  0.54699565    -0.84000
C1889       C  0.84274500  0.69007620  0.54125777     1.11200
O1890       O  0.76019599  0.80714492  0.63728295    -0.97100
Zr1891     Zr  0.75427390  0.76611623  0.60557822     1.88900
O1892       O  0.75190436  0.69718794  0.62240443    -0.73700
O1893       O  0.86690518  0.75839372  0.57282246    -0.53000
O1894       O  0.81093818  0.76912685  0.65020088    -0.97700
O1895       O  0.70305899  0.77759170  0.65570285    -0.54900
O1896       O  0.74981146  0.73305691  0.66227689    -0.74200
C1897       C  0.75042704  0.70962968  0.66004094     0.98100
O1898       O  0.74360184  0.66420283  0.50971615    -0.63100
O1899       O  0.63075167  0.74074831  0.45735302    -0.57900
O1900       O  0.68872030  0.68896601  0.56118110    -0.94500
O1901       O  0.64699168  0.71834673  0.54287391    -0.93000
O1902       O  0.69391632  0.73231389  0.36824294    -0.93300
O1903       O  0.74483731  0.69739076  0.38005447    -0.92100
C1904       C  0.65556019  0.69740945  0.55946751     1.17000
H1905       H  0.69737226  0.77495410  0.42480387     0.32900
H1906       H  0.79944367  0.70658146  0.46264665     0.43700
H1907       H  0.69773931  0.73138905  0.59825735     0.37300
H1908       H  0.80595058  0.79451943  0.55421493     0.33800
H1909       H  0.79138357  0.72646250  0.33327277     0.25500
H1910       H  0.89154367  0.75386743  0.56091252     0.31500
H1911       H  0.80368128  0.76562675  0.68256722     0.37400
H1912       H  0.70134806  0.73601376  0.33601752     0.31800
H1913       H  0.60767244  0.74038182  0.47552218     0.30700
H1914       H  0.61199388  0.77110180  0.55469974     0.32400
H1915       H  0.71124708  0.77334559  0.68739331     0.31400
H1916       H  0.74581802  0.68614677  0.40685918     0.37000
H1917       H  0.72384920  0.66547633  0.48624087     0.28100
H1918       H  0.75887346  0.84993153  0.48341860     0.32300
H1919       H  0.76340130  0.80499949  0.67109152     0.35200
H1920       H  0.63640266  0.72341106  0.45063586     0.27800
H1921       H  0.76612213  0.66137353  0.49118773     0.40700
H1922       H  0.86167634  0.73070417  0.42916571     0.30700
H1923       H  0.81687037  0.74245228  0.36454833     0.38300
H1924       H  0.68342178  0.76570835  0.64874782     0.30200
H1925       H  0.86740115  0.77639929  0.57510704     0.30300
H1926       H  0.77399674  0.84043104  0.53100590     0.30500
C1927       C  0.74416106  0.64844934  0.86180106     0.45000
H1928       H  0.74003640  0.66834620  0.86486268    -0.04100
C1929       C  0.75057794  0.60152884  0.85548284     0.45000
H1930       H  0.75330448  0.58145877  0.85317700    -0.04100
C1931       C  0.77973195  0.63869546  0.88553982    -0.17800
C1932       C  0.71216637  0.63477669  0.88480867    -0.17500
C1933       C  0.74545268  0.63946111  0.81074410    -0.17900
C1934       C  0.78310886  0.61348848  0.88204233    -0.17900
C1935       C  0.71539868  0.60975320  0.88209700    -0.17400
C1936       C  0.74903680  0.61420008  0.80686349    -0.17800
C1937       C  0.71611608  0.69084566  0.72633637    -0.02300
C1938       C  0.74926386  0.69537868  0.70338152     0.07300
C1939       C  0.78093549  0.68328602  0.71815854    -0.02500
C1940       C  0.77797118  0.66214994  0.74557026    -0.02500
C1941       C  0.74552008  0.65787395  0.77137167     0.07500
C1942       C  0.71560061  0.67442418  0.76401794    -0.02700
Br1943     Br  0.67390425  0.67607545  0.80413149    -0.01200
Br1944     Br  0.67190435  0.70743632  0.70656307    -0.01300
Br1945     Br  0.81898322  0.64038625  0.74741522    -0.01200
Br1946     Br  0.82722024  0.69989532  0.71129913    -0.01200
C1947       C  0.72476608  0.84443815  0.27116488    -0.02300
C1948       C  0.74434437  0.83827270  0.23066613     0.07300
C1949       C  0.76178959  0.81453896  0.23165075    -0.02500
C1950       C  0.76630995  0.80165841  0.27421170    -0.02500
C1951       C  0.75094290  0.81053962  0.31589574     0.07500
C1952       C  0.73094926  0.83269763  0.31385566    -0.02700
Br1953     Br  0.71169252  0.84830942  0.36879431    -0.01200
Br1954     Br  0.67930359  0.86115468  0.26473677    -0.01300
Br1955     Br  0.79711983  0.77276806  0.27596153    -0.01200
Br1956     Br  0.77433660  0.79548522  0.17731567    -0.01200
C1957       C  0.71823888  0.93365481  0.28338884    -0.02300
C1958       C  0.75013567  0.93536897  0.31033594     0.07300
C1959       C  0.77896330  0.91889667  0.30175908    -0.02500
C1960       C  0.77463378  0.89926368  0.27045724    -0.02500
C1961       C  0.74439687  0.89851051  0.23948036     0.07500
C1962       C  0.71596756  0.91626916  0.24716030    -0.02700
Br1963     Br  0.67084271  0.91607562  0.21356556    -0.01200
Br1964     Br  0.67726018  0.95516687  0.29693157    -0.01300
Br1965     Br  0.80734976  0.87216371  0.27737893    -0.01200
Br1966     Br  0.82630065  0.92581701  0.32784989    -0.01200
C1967       C  0.72558659  0.60346092  0.72465753    -0.02300
C1968       C  0.75097791  0.59954872  0.76141517     0.07300
C1969       C  0.77737912  0.58046442  0.75486329    -0.02500
C1970       C  0.77671988  0.56528575  0.71497071    -0.02500
C1971       C  0.75197167  0.56993621  0.67838070     0.07500
C1972       C  0.72875656  0.59063306  0.68225929    -0.02700
Br1973     Br  0.70202984  0.60285141  0.62937455    -0.01200
Br1974     Br  0.68156259  0.62244991  0.73311765    -0.01300
Br1975     Br  0.81276416  0.03945155  0.70825893    -0.01200
Br1976     Br  0.81654937  0.57487506  0.79818611    -0.01200
C1977       C  0.59221930  0.83401244  0.37651170    -0.02300
C1978       C  0.56843758  0.84901551  0.40320562     0.07300
C1979       C  0.57566467  0.85125497  0.45138657    -0.02500
C1980       C  0.60567170  0.83889667  0.47189505    -0.02500
C1981       C  0.62914027  0.82442207  0.44460371     0.07500
C1982       C  0.62121344  0.82109127  0.39743055    -0.02700
Br1983     Br  0.64892261  0.79760997  0.36131164    -0.01200
Br1984     Br  0.59150997  0.83426819  0.31027056    -0.01300
Br1985     Br  0.61462093  0.84145885  0.53766325    -0.01200
Br1986     Br  0.54772102  0.87334867  0.48915706    -0.01200
C1987       C  0.92260722  0.82539431  0.38793330    -0.02300
C1988       C  0.94147625  0.84381249  0.41326645     0.07300
C1989       C  0.92939196  0.84854970  0.45945715    -0.02500
C1990       C  0.89710920  0.83773277  0.47692432    -0.02500
C1991       C  0.87805645  0.82073609  0.45011762     0.07500
C1992       C  0.89157845  0.81389409  0.40662653    -0.02700
Br1993     Br  0.86615142  0.78880156  0.37194504    -0.01200
Br1994     Br  0.93378099  0.81719992  0.32505634    -0.01300
Br1995     Br  0.87874818  0.84569470  0.53790775    -0.01200
Br1996     Br  0.95717207  0.86834128  0.50127323    -0.01200
C1997       C  0.94246356  0.91817032  0.44063831    -0.02300
C1998       C  0.93543346  0.89942159  0.40835430     0.07300
C1999       C  0.89829100  0.89321829  0.39961415    -0.02500
C2000       C  0.86931516  0.90368902  0.42549612    -0.02500
C2001       C  0.87583421  0.92428327  0.45380721     0.07500
C2002       C  0.91316798  0.93040062  0.46320574    -0.02700
Br2003     Br  0.92575020  0.95354499  0.51111409    -0.01200
Br2004     Br  0.99241527  0.92677007  0.45609386    -0.01300
Br2005     Br  0.82188287  0.88782263  0.42402710    -0.01200
Br2006     Br  0.88563349  0.87330301  0.34729077    -0.01200
C2007       C  0.62425721  0.90887438  0.43197183    -0.02300
C2008       C  0.62488519  0.93423411  0.42750098     0.07300
C2009       C  0.59830039  0.94539931  0.39797479    -0.02500
C2010       C  0.56947729  0.93136144  0.37821179    -0.02500
C2011       C  0.56833019  0.90571429  0.38681882     0.07500
C2012       C  0.60200900  0.89582819  0.40190290    -0.02700
Br2013     Br  0.63185511  0.88476497  0.35238954    -0.01200
Br2014     Br  0.65950730  0.89110110  0.46866335    -0.01300
Br2015     Br  0.54011171  0.94723564  0.33119602    -0.01200
Br2016     Br  0.60345550  0.97904296  0.37968943    -0.01200
C2017       C  0.65492032  0.67447144  0.96711137    -0.02300
C2018       C  0.61906145  0.67174782  0.94934229     0.07300
C2019       C  0.61366590  0.65616428  0.91109160    -0.02500
C2020       C  0.64374552  0.64367328  0.89125975    -0.02500
C2021       C  0.68006846  0.64803351  0.90657733     0.07500
C2022       C  0.68532517  0.66470922  0.94337046    -0.02700
Br2023     Br  0.73344573  0.67475583  0.96301239    -0.01200
Br2024     Br  0.66255100  0.69003303  0.02632617    -0.01300
Br2025     Br  0.63522837  0.62328938  0.83855966    -0.01200
Br2026     Br  0.56599322  0.65334072  0.88250767    -0.01200
C2027       C  0.85407906  0.68758431  0.90375619    -0.02300
C2028       C  0.87176615  0.67894738  0.94382231     0.07300
C2029       C  0.85619872  0.65963202  0.96877378    -0.02500
C2030       C  0.82346223  0.64862035  0.95294787    -0.02500
C2031       C  0.80784382  0.65510620  0.90936385     0.07500
C2032       C  0.82201905  0.67630051  0.88724212    -0.02700
Br2033     Br  0.79839802  0.69216322  0.83613066    -0.01200
Br2034     Br  0.87492042  0.71499455  0.87032390    -0.01300
Br2035     Br  0.79720524  0.62812744  0.99555944    -0.01200
Br2036     Br  0.87918425  0.64882485  0.02539789    -0.01200
C2037       C  0.64965060  0.84972682  0.10785484    -0.02300
C2038       C  0.68637467  0.84631926  0.09313080     0.07300
C2039       C  0.69292385  0.82870707  0.05794437    -0.02500
C2040       C  0.66318228  0.81806569  0.03383663    -0.02500
C2041       C  0.62638779  0.82225185  0.04819895     0.07500
C2042       C  0.62006332  0.83809004  0.08586223    -0.02700
Br2043     Br  0.57117097  0.84328770  0.11046654    -0.01200
Br2044     Br  0.63899284  0.86827781  0.16164725    -0.01300
Br2045     Br  0.67340238  0.79933375  0.97840467    -0.01200
Br2046     Br  0.74195744  0.81898758  0.04043587    -0.01200
C2047       C  0.87093519  0.82250412  0.10555362    -0.02300
C2048       C  0.87959048  0.82547858  0.05857943     0.07300
C2049       C  0.85720378  0.84017796  0.03048270    -0.02500
C2050       C  0.82551726  0.85144668  0.04924296    -0.02500
C2051       C  0.81755034  0.84959997  0.09743888     0.07500
C2052       C  0.84209710  0.83597071  0.12546544    -0.02700
Br2053     Br  0.84004458  0.83696973  0.19156864    -0.01200
Br2054     Br  0.89718200  0.79852674  0.14224201    -0.01300
Br2055     Br  0.79293995  0.86770462  0.00692096    -0.01200
Br2056     Br  0.86925770  0.84348032  0.96558989    -0.01200
C2057       C  0.51455863  0.81870354  0.26449368    -0.02300
C2058       C  0.99637849  0.84209815  0.26779259     0.07300
C2059       C  0.97510218  0.84886560  0.22854167    -0.02500
C2060       C  0.97924344  0.83691669  0.18542075    -0.02500
C2061       C  0.00089232  0.81555847  0.18155134     0.07500
C2062       C  0.51978524  0.80734821  0.22105506    -0.02700
Br2063     Br  0.55571170  0.78128075  0.21532290    -0.01200
Br2064     Br  0.52346782  0.79644970  0.31568287    -0.01300
Br2065     Br  0.95487062  0.85046656  0.13197930    -0.01200
Br2066     Br  0.93115930  0.86805202  0.23675651    -0.01200
C2067       C  0.58635332  0.64772102  0.55958104    -0.02300
C2068       C  0.55808094  0.65609568  0.58893428     0.07300
C2069       C  0.55828818  0.68169610  0.59639755    -0.02500
C2070       C  0.59195755  0.69435238  0.59333859    -0.02500
C2071       C  0.62408907  0.68247836  0.57614446     0.07500
C2072       C  0.62141706  0.65763091  0.56410104    -0.02700
Br2073     Br  0.66116373  0.63974882  0.53584148    -0.01200
Br2074     Br  0.57438867  0.65114650  0.49496308    -0.01300
Br2075     Br  0.59392934  0.72720895  0.61718602    -0.01200
Br2076     Br  0.51394756  0.70126519  0.59479209    -0.01200
C2077       C  0.90446384  0.65807902  0.62384120    -0.02300
C2078       C  0.93487864  0.65086630  0.59725704     0.07300
C2079       C  0.93454924  0.65675046  0.54946373    -0.02500
C2080       C  0.90382319  0.66875142  0.52951392    -0.02500
C2081       C  0.87175875  0.67255632  0.55599908     0.07500
C2082       C  0.87155628  0.66458557  0.60196130    -0.02700
Br2083     Br  0.82595953  0.65753999  0.63148177    -0.01200
Br2084     Br  0.91005505  0.66586300  0.68814435    -0.01300
Br2085     Br  0.90444994  0.67834391  0.46523001    -0.01200
Br2086     Br  0.97724679  0.65184529  0.51234412    -0.01200
C2087       C  0.86968347  0.59007929  0.58495451    -0.02300
C2088       C  0.87597906  0.57619805  0.54452935     0.07300
C2089       C  0.91279918  0.57132216  0.53132185    -0.02500
C2090       C  0.94221142  0.57875463  0.55955006    -0.02500
C2091       C  0.93603312  0.59545213  0.59602764     0.07500
C2092       C  0.89942430  0.59863423  0.61127810    -0.02700
Br2093     Br  0.89004669  0.60687848  0.67479731    -0.01200
Br2094     Br  0.82067136  0.59593551  0.60786335    -0.01300
Br2095     Br  0.98538162  0.55825329  0.55851459    -0.01200
Br2096     Br  0.92392602  0.55423916  0.47440461    -0.01200
C2097       C  0.56827863  0.59542831  0.54287192    -0.02300
C2098       C  0.56507985  0.59837821  0.59152156     0.07300
C2099       C  0.59111221  0.58609013  0.61966932    -0.02500
C2100       C  0.62107247  0.57367883  0.59998880    -0.02500
C2101       C  0.62805451  0.57572930  0.55244136     0.07500
C2102       C  0.60093112  0.58586940  0.52352604    -0.02700
Br2103     Br  0.60780598  0.58534479  0.45728633    -0.01200
Br2104     Br  0.52727638  0.60120073  0.50229709    -0.01300
Br2105     Br  0.64969437  0.55095604  0.63714147    -0.01200
Br2106     Br  0.58557890  0.58356613  0.68483531    -0.01200
C2107       C  0.97431813  0.64901384  0.77068590    -0.02300
C2108       C  0.00078514  0.65123974  0.73487748     0.07300
C2109       C  0.52780289  0.66982184  0.73989164    -0.02500
C2110       C  0.52687878  0.68637756  0.77754985    -0.02500
C2111       C  0.99942477  0.68463215  0.81166534     0.07500
C2112       C  0.97378069  0.66554159  0.80836605    -0.02700
Br2113     Br  0.93728000  0.66230376  0.85599106    -0.01200
Br2114     Br  0.93842190  0.62354075  0.77000289    -0.01300
Br2115     Br  0.56602549  0.70966348  0.78541401    -0.01200
Br2116     Br  0.57126457  0.66960858  0.70187946    -0.01200
C2117       C  0.83803618  0.56862931  0.95833441    -0.02300
C2118       C  0.87502274  0.57362852  0.94619019     0.07300
C2119       C  0.88156962  0.59160695  0.91207831    -0.02500
C2120       C  0.85183777  0.60411758  0.89104860    -0.02500
C2121       C  0.81484640  0.59863225  0.90210512     0.07500
C2122       C  0.80856695  0.57953108  0.93412121    -0.02700
Br2123     Br  0.76002788  0.56774060  0.94721599    -0.01200
Br2124     Br  0.82651674  0.54838547  0.01135519    -0.01300
Br2125     Br  0.86238193  0.62688883  0.84300445    -0.01200
Br2126     Br  0.93095380  0.59878715  0.89159176    -0.01200
C2127       C  0.67449382  0.59619381  0.94938186    -0.02300
C2128       C  0.68741064  0.59252213  0.90328740     0.07300
C2129       C  0.67047721  0.57395231  0.87648862    -0.02500
C2130       C  0.63930103  0.56167602  0.89358984    -0.02500
C2131       C  0.62393538  0.56803547  0.93680248     0.07500
C2132       C  0.64204171  0.58493768  0.96502714    -0.02700
Br2133     Br  0.62331810  0.59148445  0.02644558    -0.01200
Br2134     Br  0.70319619  0.61377850  0.99415698    -0.01300
Br2135     Br  0.61665825  0.53622653  0.85715399    -0.01200
Br2136     Br  0.68680162  0.56602120  0.81476186    -0.01200
C2137       C  0.52338877  0.58123043  0.81134408    -0.02300
C2138       C  0.50030654  0.56072349  0.81301795     0.07300
C2139       C  0.97864403  0.55545166  0.77400125    -0.02500
C2140       C  0.98032892  0.57022858  0.73365598    -0.02500
C2141       C  0.50292326  0.59163703  0.73185488     0.07500
C2142       C  0.52549740  0.59593350  0.77124526    -0.02700
Br2143     Br  0.56388841  0.61952710  0.77003787    -0.01200
Br2144     Br  0.55330848  0.58925103  0.86424843    -0.01300
Br2145     Br  0.95033349  0.55946921  0.68293730    -0.01200
Br2146     Br  0.94362711  0.52903617  0.77753182    -0.01200
C2147       C  0.87871399  0.91385186  0.10186263    -0.02300
C2148       C  0.87445641  0.92508872  0.05828670     0.07300
C2149       C  0.83895195  0.92637303  0.03870292    -0.02500
C2150       C  0.80838288  0.91712180  0.06285214    -0.02500
C2151       C  0.81320082  0.90418723  0.10480591     0.07500
C2152       C  0.84808630  0.90459714  0.12554793    -0.02700
Br2153     Br  0.85230240  0.89838968  0.19024477    -0.01200
Br2154     Br  0.92591986  0.91186109  0.13118063    -0.01300
Br2155     Br  0.76042127  0.92428110  0.03889019    -0.01200
Br2156     Br  0.83218857  0.93929168  0.97700904    -0.01200
C2157       C  0.67800287  0.92720625  0.10688761    -0.02300
C2158       C  0.68899896  0.90370066  0.09049325     0.07300
C2159       C  0.67074675  0.89546885  0.04973235    -0.02500
C2160       C  0.63621903  0.90510502  0.03696832    -0.02500
C2161       C  0.62207745  0.92542819  0.06040597     0.07500
C2162       C  0.64321559  0.93650950  0.09525102    -0.02700
Br2163     Br  0.62453612  0.96521686  0.12703969    -0.01200
Br2164     Br  0.71133807  0.95150621  0.13122474    -0.01300
Br2165     Br  0.60928548  0.89142851  0.98569522    -0.01200
Br2166     Br  0.69740900  0.87806190  0.00244069    -0.01200
C2167       C  0.97193757  0.93745692  0.22368649    -0.02300
C2168       C  0.49969518  0.93493620  0.18996400     0.07300
C2169       C  0.52607214  0.91624638  0.19565347    -0.02500
C2170       C  0.52519724  0.90064198  0.23453370    -0.02500
C2171       C  0.49608500  0.90170355  0.26688837     0.07500
C2172       C  0.96990354  0.92100175  0.26145958    -0.02700
Br2173     Br  0.93004846  0.92547947  0.30435766    -0.01200
Br2174     Br  0.93480894  0.96252785  0.21637619    -0.01300
Br2175     Br  0.56731627  0.88072218  0.24619179    -0.01200
Br2176     Br  0.56489304  0.91252844  0.15103767    -0.01200
loop_ 
_geom_bond_atom_site_label_1 
_geom_bond_atom_site_label_2 
_geom_bond_distance 
_geom_bond_site_symmetry_2 
_ccdc_geom_bond_type 
Zr1           O3   2.425       .  S
Zr1           O4   2.479   1_655  S
Zr1        O1095   2.468       .  S
Zr1           O9   2.379   1_655  S
Zr1          O11   2.411   1_656  S
Zr1        O1098   2.380       .  S
Zr1        O1100   2.412   1_556  S
Zr1        O1090   2.436   1_656  S
O2        Zr1089   2.436   1_554  S
O2         H1146   0.990   1_554  S
O2         H1154   0.991       .  S
O3         C1111   1.283       .  A
O4           C25   1.294       .  A
O5          Zr15   2.413   1_546  S
O5           C24   1.280       .  A
O6          Zr14   2.386   1_545  S
O6           C25   1.275       .  A
O7        Zr1089   2.468       .  S
O7           C24   1.291       .  A
O8        Zr1648   2.464   1_545  S
O8           C23   1.290       .  A
O9          Zr14   2.378   1_545  S
O9         Zr560   2.365   1_445  S
O10         Zr15   2.383   1_546  S
O10       Zr1089   2.380       .  S
O10       Zr1648   2.359   1_545  S
O10          H45   0.966       .  S
O11         Zr14   2.391   1_544  S
O11         Zr31   2.411       .  S
O11          H48   0.964       .  S
O12         Zr15   2.389   1_545  S
O12       Zr1089   2.412   1_554  S
O12       Zr1119   2.415       .  S
Zr13         O32   2.429       .  S
Zr13         O40   2.457       .  S
Zr13       O1116   2.453       .  S
Zr13         O19   2.407   1_554  S
Zr13         O22   2.379       .  S
Zr13       O1108   2.410   1_554  S
Zr13       O1109   2.377       .  S
Zr13         O38   2.436   1_554  S
Zr14        O571   2.386   1_556  S
Zr14        O564   2.391       .  S
Zr14        O565   2.375   1_556  S
Zr14         O33   2.439   1_566  S
Zr14        O570   2.436       .  S
Zr15        O585   2.411       .  S
Zr15        O563   2.393   1_554  S
Zr15        O566   2.383       .  S
Zr15         O17   2.435   1_565  S
Zr15        O583   2.435   1_554  S
Zr16       O1640   2.464   1_655  S
Zr16         O20   2.405   1_655  S
Zr16        O553   2.364   1_655  S
Zr16       O1642   2.359       .  S
Zr16       O1107   2.410       .  S
Zr16         O18   2.435   1_655  S
Zr16       O1130   2.435       .  S
Zr16       O1131   2.436       .  S
O17          H54   0.990       .  S
O18          H49   0.989       .  S
O18          H63   0.990       .  S
O19        Zr559   2.393   1_556  S
O19       Zr1104   2.410       .  S
O20       Zr1101   2.410   1_456  S
O20        Zr558   2.391       .  S
O20          H46   0.966       .  S
O21       Zr1101   2.377   1_455  S
O21        Zr558   2.375   1_554  S
O21        Zr575   2.365       .  S
O22        Zr559   2.383       .  S
O22       Zr1663   2.368       .  S
O22          H47   0.966       .  S
C23        O1091   1.283       .  A
C23        C1594   1.502       .  S
C24         C486   1.504       .  S
C25         C499   1.478       .  S
O26        Zr558   2.436       .  S
O26          H62   0.990       .  S
O27        Zr558   2.386   1_554  S
O27          C29   1.277       .  A
O28       Zr1101   2.453   1_455  S
O28          C29   1.288       .  A
C29         C529   1.470       .  S
O30       Zr1119   2.440       .  S
O30        H1147   0.990       .  S
Zr31        O580   2.471   1_545  S
Zr31       O1100   2.415   1_455  S
Zr31        O565   2.365   1_545  S
Zr31       O1654   2.368   1_445  S
Zr31         O34   2.437       .  S
Zr31       O1118   2.440       .  S
Zr31       O1123   2.438   1_455  S
O32        C1125   1.284       .  A
O33          H50   0.990       .  S
O33          H65   0.989       .  S
O34          H51   0.991       .  S
O35       Zr1119   2.438       .  S
O35          H55   0.991       .  S
O35          H64   0.989       .  S
O36        Zr575   2.471       .  S
O36          C37   1.291   1_455  A
C37        O1120   1.284       .  A
C37         C536   1.500       .  S
O38          H57   0.990       .  S
O38        H1149   0.990       .  S
O39        Zr559   2.435   1_556  S
O39          H53   0.990       .  S
O39          H60   0.990       .  S
O40          C44   1.290       .  A
O41        Zr559   2.411       .  S
O41          C44   1.281       .  A
O42       Zr1104   2.435       .  S
O42          H52   0.990       .  S
O43       Zr1104   2.436       .  S
O43        H1144   0.989       .  S
C44         C516   1.488       .  S
H56        O1131   0.989   1_455  S
H58        O1090   0.990   1_556  S
H59        O1118   0.990       .  S
H61        O1126   0.990   1_455  S
H66        O1090   0.991       .  S
C67          H68   1.100       .  S
C67          C72   1.557       .  S
C67        C1161   1.558       .  S
C67        C1159   1.557       .  S
C69          H70   1.092       .  S
C69          C75   1.536       .  S
C69          C76   1.560       .  S
C69        C1162   1.559       .  S
C71        C1155   1.557       .  S
C71          C74   1.394       .  D
C71         C466   1.510       .  S
C72          C75   1.382       .  D
C72         C459   1.513       .  S
C73        C1155   1.558       .  S
C73        C1164   1.399       .  D
C73         C509   1.549       .  S
C74        C1157   1.559   1_455  S
C74         C436   1.542       .  S
C75         C446   1.507       .  S
C76        C1161   1.399       .  D
C76         C476   1.529       .  S
Zr77         O79   2.427       .  S
Zr77         O80   2.456       .  S
Zr77       O1171   2.467       .  S
Zr77         O85   2.381       .  S
Zr77         O87   2.412   1_554  S
Zr77       O1174   2.377       .  S
Zr77       O1176   2.407   1_554  S
Zr77       O1166   2.436   1_554  S
O78       Zr1165   2.436   1_556  S
O78        H1222   0.990       .  S
O78        H1230   0.990   1_455  S
O79          C99   1.282       .  A
O80         C101   1.289       .  A
O81         Zr91   2.403   1_554  S
O81         C100   1.278       .  A
O82         Zr90   2.396   1_554  S
O82         C101   1.277       .  A
O83       Zr1165   2.467       .  S
O83         C100   1.292       .  A
O84         Zr92   2.459       .  S
O84          C99   1.290       .  A
O85         Zr90   2.378   1_554  S
O85         Zr92   2.363       .  S
O86         Zr91   2.382   1_554  S
O86       Zr1165   2.377       .  S
O86       Zr1180   2.361   1_455  S
O86         H121   0.966       .  S
O87         Zr90   2.394       .  S
O87        Zr107   2.407       .  S
O87         H124   0.966       .  S
O88         Zr91   2.388       .  S
O88       Zr1165   2.407   1_556  S
O88       Zr1195   2.413   1_455  S
Zr89        O108   2.430       .  S
Zr89        O104   2.458       .  S
Zr89       O1204   2.454       .  S
Zr89         O96   2.408   1_556  S
Zr89         O97   2.380       .  S
Zr89       O1183   2.407   1_556  S
Zr89       O1186   2.380       .  S
Zr89       O1202   2.438   1_556  S
Zr90        O103   2.405       .  S
Zr90         O96   2.391   1_556  S
Zr90         O97   2.379       .  S
Zr90        O109   2.438       .  S
Zr90        O102   2.435   1_556  S
Zr91        O117   2.405       .  S
Zr91         O95   2.394   1_556  S
Zr91         O98   2.378       .  S
Zr91         O93   2.434       .  S
Zr91        O115   2.435   1_556  S
Zr92         O96   2.403       .  S
Zr92       O1174   2.361       .  S
Zr92       O1183   2.406       .  S
Zr92         O94   2.436       .  S
Zr92       O1206   2.435       .  S
Zr92       O1207   2.436       .  S
O93         H130   0.990       .  S
O94         H125   0.990       .  S
O94         H139   0.989       .  S
O95       Zr1177   2.407   1_454  S
O95       Zr1180   2.406   1_455  S
O96         H122   0.965       .  S
O97        Zr107   2.369       .  S
O98       Zr1177   2.380   1_455  S
O98       Zr1195   2.368   1_455  S
O98         H123   0.964       .  S
C99         C429   1.502       .  S
C100        C409   1.495       .  S
C101        C416   1.468       .  S
O102        H138   0.990       .  S
O103        C105   1.280       .  A
O104        C105   1.289       .  A
C105        C396   1.478       .  S
O106      Zr1195   2.439       .  S
O106       H1223   0.990       .  S
Zr107       O112   2.463       .  S
Zr107      O1176   2.413       .  S
Zr107      O1186   2.368       .  S
Zr107       O110   2.436       .  S
Zr107      O1194   2.439       .  S
Zr107      O1199   2.437       .  S
O108        C113   1.285       .  A
O109        H126   0.990       .  S
O109        H141   0.991       .  S
O110        H127   0.990       .  S
O111      Zr1195   2.437   1_455  S
O111        H131   0.991       .  S
O111        H140   0.989       .  S
O112        C113   1.289       .  A
C113        C479   1.500       .  S
O114      Zr1177   2.438   1_554  S
O114        H133   0.990   1_655  S
O114       H1225   0.990       .  S
O115        H129   0.991       .  S
O115        H136   0.990       .  S
O116      Zr1177   2.454   1_455  S
O116        C120   1.289       .  A
O117        C120   1.280       .  A
O118      Zr1180   2.435   1_455  S
O118        H128   0.990       .  S
O119      Zr1180   2.436       .  S
O119       H1220   0.990       .  S
C120        C386   1.488       .  S
H132       O1207   0.990       .  S
H134       O1166   0.990       .  S
H135       O1194   0.990       .  S
H137       O1202   0.990       .  S
H142       O1166   0.990       .  S
C143        H144   1.090       .  S
C143        C148   1.556       .  S
C143       C1237   1.544       .  S
C143       C1235   1.558       .  S
C145       H1234   1.087       .  S
C145        C151   1.543       .  S
C145        C152   1.574       .  S
C145       C1238   1.555       .  S
H146       C1233   1.087       .  S
C147       C1231   1.558   1_455  S
C147        C150   1.391       .  D
C147        C379   1.544       .  S
C148        C151   1.372       .  D
C148        C366   1.518       .  S
C149       C1231   1.544       .  S
C149       C1240   1.412       .  D
C149        C539   1.529       .  S
C150       C1233   1.555       .  S
C150        C346   1.513       .  S
C151        C356   1.525       .  S
C152       C1237   1.412       .  D
C152        C426   1.552       .  S
Zr153       O155   2.435       .  S
Zr153       O156   2.467       .  S
Zr153       O159   2.459       .  S
Zr153       O161   2.375       .  S
Zr153       O162   2.380       .  S
Zr153       O163   2.407       .  S
Zr153       O164   2.415       .  S
Zr153       O154   2.436       .  S
O154        H210   0.990       .  S
O154        H218   0.991       .  S
O155        C175   1.284       .  A
O156        C177   1.291       .  A
O157       Zr167   2.401       .  S
O157        C176   1.278       .  A
O158       Zr166   2.374       .  S
O158        C177   1.272       .  A
O159        C176   1.290       .  A
O160       Zr712   2.478   1_545  S
O160        C175   1.293       .  A
O161       Zr166   2.375       .  S
O161       Zr712   2.362   1_545  S
O162       Zr167   2.386       .  S
O162       Zr712   2.363   1_545  S
O162        H197   0.965       .  S
O163       Zr166   2.394       .  S
O163       Zr183   2.412       .  S
O163        H200   0.966       .  S
O164       Zr167   2.391       .  S
O164       Zr183   2.415       .  S
Zr165       O184   2.428       .  S
Zr165       O192   2.477       .  S
Zr165       O180   2.480       .  S
Zr165       O171   2.413       .  S
Zr165       O172   2.415       .  S
Zr165       O173   2.372       .  S
Zr165       O174   2.377       .  S
Zr165       O190   2.435       .  S
Zr166       O723   2.381   1_545  S
Zr166       O716   2.390   1_545  S
Zr166       O717   2.377   1_545  S
Zr166       O185   2.436       .  S
Zr166       O722   2.436   1_545  S
Zr167       O737   2.412   1_545  S
Zr167       O715   2.389   1_545  S
Zr167       O718   2.379   1_545  S
Zr167       O169   2.434       .  S
Zr167       O735   2.435   1_545  S
Zr168       O704   2.478       .  S
Zr168       O171   2.414       .  S
Zr168       O172   2.413       .  S
Zr168       O705   2.362       .  S
Zr168       O706   2.363       .  S
Zr168       O194   2.435       .  S
Zr168       O195   2.435       .  S
Zr168       O170   2.435       .  S
O169        H206   0.990       .  S
O170        H201   0.990       .  S
O170        H215   0.989       .  S
O171       Zr711   2.389       .  S
O172       Zr710   2.390       .  S
O172        H198   0.966       .  S
O173       Zr710   2.376       .  S
O173       Zr727   2.359       .  S
O174       Zr711   2.379       .  S
O174       Zr727   2.367       .  S
O174        H199   0.966       .  S
C175        C339   1.512       .  S
C176        C456   1.491       .  S
C177        C469   1.464       .  S
O178       Zr710   2.436       .  S
O178        H214   0.990       .  S
O179       Zr710   2.381       .  S
O179        C181   1.274       .  A
O180        C181   1.296       .  A
C181        C376   1.485       .  S
O182       Zr183   2.438       .  S
O182        H211   0.990       .  S
Zr183       O732   2.473   1_545  S
Zr183       O717   2.359   1_545  S
Zr183       O718   2.367   1_545  S
Zr183       O186   2.437       .  S
Zr183       O187   2.438       .  S
O184        C189   1.284       .  A
O185        H202   0.991       .  S
O185        H217   0.988       .  S
O186        H203   0.991       .  S
O187        H207   0.990       .  S
O187        H216   0.990       .  S
O188       Zr727   2.473       .  S
O188        C189   1.292       .  A
C189        C326   1.495       .  S
O190        H209   0.990       .  S
O190        H213   0.990       .  S
O191       Zr711   2.435       .  S
O191        H205   0.991       .  S
O191        H212   0.989       .  S
O192        C196   1.293       .  A
O193       Zr711   2.412       .  S
O193        C196   1.280       .  A
O194        H204   0.990       .  S
O195        H208   0.990       .  S
C196        C369   1.514       .  S
C219        H220   1.082       .  S
C219        C225   1.560       .  S
C219        C224   1.549       .  S
C219        C223   1.562       .  S
C221        H222   1.085       .  S
C221        C227   1.561       .  S
C221        C226   1.534       .  S
C221        C228   1.569       .  S
C223        C226   1.369       .  D
C223        C419   1.511       .  S
C224        C227   1.395       .  D
C224        C406   1.524       .  S
C225        C228   1.414       .  D
C225        C316   1.560       .  S
C226        C519   1.510       .  S
C227        C526   1.540       .  S
C228        C329   1.542       .  S
Zr229       O231   2.424       .  S
Zr229       O232   2.452       .  S
Zr229       O235   2.478       .  S
Zr229       O237   2.385       .  S
Zr229       O238   2.374       .  S
Zr229       O239   2.411       .  S
Zr229       O240   2.405       .  S
Zr229       O230   2.435       .  S
O230        H286   0.990       .  S
O230        H294   0.991       .  S
O231        C251   1.281       .  A
O232        C253   1.289       .  A
O233       Zr243   2.393       .  S
O233        C252   1.276       .  A
O234       Zr242   2.395       .  S
O234        C253   1.278       .  A
O235        C252   1.294       .  A
O236       Zr244   2.480       .  S
O236        C251   1.294       .  A
O237       Zr242   2.390       .  S
O237       Zr244   2.368       .  S
O238       Zr243   2.380       .  S
O238       Zr244   2.348       .  S
O238        H273   0.962       .  S
O239       Zr242   2.394       .  S
O239       Zr259   2.400       .  S
O239        H276   0.965       .  S
O240       Zr243   2.393       .  S
O240       Zr259   2.409       .  S
Zr241       O260   2.425       .  S
Zr241       O268   2.463       .  S
Zr241       O256   2.453       .  S
Zr241       O247   2.408       .  S
Zr241       O248   2.411       .  S
Zr241       O249   2.379       .  S
Zr241       O250   2.378       .  S
Zr241       O266   2.437       .  S
Zr242       O255   2.413       .  S
Zr242       O248   2.392       .  S
Zr242       O249   2.376       .  S
Zr242       O261   2.437       .  S
Zr242       O254   2.434       .  S
Zr243       O269   2.410       .  S
Zr243       O247   2.390       .  S
Zr243       O250   2.372       .  S
Zr243       O245   2.433       .  S
Zr243       O267   2.437       .  S
Zr244       O247   2.416       .  S
Zr244       O248   2.406       .  S
Zr244       O270   2.436       .  S
Zr244       O271   2.436       .  S
Zr244       O246   2.435       .  S
O245        H282   0.990       .  S
O246        H277   0.991       .  S
O246        H291   0.989       .  S
O248        H274   0.967       .  S
O249       Zr259   2.375       .  S
O250       Zr259   2.364       .  S
O250        H275   0.964       .  S
C251        C319   1.512       .  S
C252        C349   1.472       .  S
C253        C359   1.465       .  S
O254        H290   0.990       .  S
O255        C257   1.281       .  A
O256        C257   1.289       .  A
C257        C449   1.485       .  S
O258       Zr259   2.439       .  S
O258        H287   0.990       .  S
Zr259       O264   2.449       .  S
Zr259       O262   2.437       .  S
Zr259       O263   2.438       .  S
O260        C265   1.284       .  A
O261        H278   0.990       .  S
O261        H293   0.990       .  S
O262        H279   0.990       .  S
O263        H283   0.990       .  S
O263        H292   0.990       .  S
O264        C265   1.286       .  A
C265        C306   1.476       .  S
O266        H285   0.990       .  S
O266        H289   0.990       .  S
O267        H281   0.990       .  S
O267        H288   0.990       .  S
O268        C272   1.291       .  A
O269        C272   1.281       .  A
O270        H280   0.990       .  S
O271        H284   0.990       .  S
C272        C439   1.491       .  S
C295        H296   1.104       .  S
C295        C301   1.555       .  S
C295        C300   1.539       .  S
C295        C299   1.556       .  S
C297        H298   1.106       .  S
C297        C303   1.557       .  S
C297        C302   1.558       .  S
C297        C304   1.567       .  S
C299        C302   1.390       .  D
C299        C399   1.529       .  S
C300        C303   1.378       .  D
C300        C389   1.509       .  S
C301        C304   1.395       .  D
C301        C309   1.521       .  S
C302        C489   1.523       .  S
C303        C496   1.522       .  S
C304        C336   1.540       .  S
C305        C306   1.399       .  A
C305        C310   1.413       .  A
C305       Br312   1.930       .  S
C306        C307   1.393       .  A
C307        C308   1.408       .  A
C307       Br314   1.929       .  S
C308        C309   1.417       .  A
C308       Br313   1.905       .  S
C309        C310   1.429       .  A
C310       Br311   1.910       .  S
C315        C316   1.409       .  A
C315        C320   1.408       .  A
C315       Br322   1.895       .  S
C316        C317   1.445       .  A
C317        C318   1.427       .  A
C317       Br324   1.937       .  S
C318        C319   1.412       .  A
C318       Br323   1.936       .  S
C319        C320   1.413       .  A
C320       Br321   1.931       .  S
C325        C326   1.401       .  A
C325        C330   1.417       .  A
C325       Br332   1.935       .  S
C326        C327   1.402       .  A
C327        C328   1.415       .  A
C327       Br334   1.919       .  S
C328        C329   1.418       .  A
C328       Br333   1.909       .  S
C329        C330   1.433       .  A
C330       Br331   1.907       .  S
C335        C336   1.423       .  A
C335        C340   1.416       .  A
C335       Br342   1.921       .  S
C336        C337   1.429       .  A
C337        C338   1.421       .  A
C337       Br344   1.919       .  S
C338        C339   1.410       .  A
C338       Br887   1.934       .  S
C339        C340   1.415       .  A
C340       Br341   1.928       .  S
Br343       C882   1.934       .  S
C345        C346   1.418       .  A
C345        C350   1.404       .  A
C345       Br352   1.912       .  S
C346        C347   1.421       .  A
C347        C348   1.412       .  A
C347       Br354   1.916       .  S
C348        C349   1.404       .  A
C348       Br353   1.932       .  S
C349        C350   1.404       .  A
C350       Br351   1.935       .  S
C355        C356   1.426       .  A
C355        C360   1.404       .  A
C355       Br362   1.913       .  S
C356        C357   1.427       .  A
C357        C358   1.412       .  A
C357       Br364   1.915       .  S
C358        C359   1.398       .  A
C358       Br363   1.932       .  S
C359        C360   1.399       .  A
C360       Br361   1.940       .  S
C365        C366   1.412       .  A
C365        C370   1.414       .  A
C365       Br372   1.932       .  S
C366        C367   1.418       .  A
C367        C368   1.411       .  A
C367       Br374   1.921       .  S
C368        C369   1.415       .  A
C368       Br373   1.937       .  S
C369        C370   1.427       .  A
C370       Br371   1.933       .  S
C375        C376   1.397       .  A
C375        C380   1.388       .  A
C375       Br382   1.924       .  S
C376        C377   1.425       .  A
C377        C378   1.424       .  A
C377       Br384   1.929       .  S
C378        C379   1.429       .  A
C378       Br383   1.932       .  S
C379        C380   1.406       .  A
C380       Br381   1.893       .  S
C385        C386   1.410       .  A
C385        C390   1.404       .  A
C385       Br392   1.931   1_556  S
C386        C387   1.410       .  A
C387        C388   1.409       .  A
C387       Br394   1.927       .  S
C388        C389   1.415       .  A
C388       Br393   1.914       .  S
C389        C390   1.415       .  A
C390       Br391   1.924       .  S
C395        C396   1.405       .  A
C395        C400   1.407       .  A
C395       Br402   1.944       .  S
C396        C397   1.403       .  A
C397        C398   1.414       .  A
C397       Br404   1.928   1_556  S
C398        C399   1.425       .  A
C398       Br403   1.924       .  S
C399        C400   1.425       .  A
C400       Br401   1.914       .  S
C405        C406   1.413       .  A
C405        C410   1.406       .  A
C405       Br412   1.895       .  S
C406        C407   1.420       .  A
C407        C408   1.415       .  A
C407       Br414   1.926       .  S
C408        C409   1.419       .  A
C408       Br413   1.936   1_554  S
C409        C410   1.409       .  A
C410       Br411   1.935       .  S
C415        C416   1.402       .  A
C415        C420   1.402       .  A
C415       Br422   1.936       .  S
C416        C417   1.401       .  A
C417        C418   1.412       .  A
C417       Br424   1.933   1_554  S
C418        C419   1.425       .  A
C418       Br423   1.918       .  S
C419        C420   1.415       .  A
C420       Br421   1.910       .  S
C425        C430   1.412       .  A
C425       C1514   1.443   1_455  A
C425       Br432   1.943       .  S
C426        C427   1.421       .  A
C426       C1513   1.443       .  A
C427        C428   1.414       .  A
C427       Br434   1.923       .  S
C428        C429   1.412       .  A
C428       Br433   1.927       .  S
C429       C1518   1.404       .  A
C430       C1517   1.404       .  A
C430       Br431   1.938       .  S
C435        C436   1.407       .  A
C435        C440   1.395       .  A
C435       Br442   1.924       .  S
C436        C437   1.420       .  A
C437        C438   1.414       .  A
C437       Br444   1.933       .  S
C438        C439   1.424       .  A
C438       Br443   1.930       .  S
C439        C440   1.410       .  A
C440       Br441   1.923       .  S
C445        C446   1.401       .  A
C445        C450   1.398       .  A
C445       Br452   1.916       .  S
C446        C447   1.417       .  A
C447        C448   1.416       .  A
C447       Br454   1.905       .  S
C448        C449   1.409       .  A
C448       Br453   1.929       .  S
C449        C450   1.397       .  A
C450       Br451   1.906       .  S
C455        C456   1.411       .  A
C455        C460   1.405       .  A
C455       Br462   1.927       .  S
C456        C457   1.416       .  A
C457        C458   1.407       .  A
C457       Br464   1.932       .  S
C458        C459   1.412       .  A
C458       Br463   1.926       .  S
C459        C460   1.412       .  A
C460       Br461   1.918       .  S
C465        C466   1.418       .  A
C465        C470   1.411       .  A
C465       Br472   1.921       .  S
C466        C467   1.416       .  A
C467        C468   1.402       .  A
C467       Br474   1.897       .  S
C468        C469   1.401       .  A
C468       Br473   1.942       .  S
C469        C470   1.405       .  A
C470       Br471   1.929       .  S
C475        C476   1.418       .  A
C475        C480   1.415       .  A
C475       Br482   1.918       .  S
C476       C1565   1.427       .  A
C477        C478   1.416       .  A
C477       C1564   1.427       .  A
C477       Br484   1.924       .  S
C478       C1567   1.406   1_455  A
C478       Br483   1.931       .  S
C479        C480   1.409       .  A
C479       C1566   1.406       .  A
C480       Br481   1.920       .  S
C485        C486   1.419       .  A
C485        C490   1.410       .  A
C485       Br492   1.938   1_556  S
C486        C487   1.415       .  A
C487        C488   1.414       .  A
C487       Br494   1.934       .  S
C488        C489   1.417       .  A
C488       Br493   1.907       .  S
C489        C490   1.417       .  A
C490       Br491   1.921       .  S
C495        C496   1.425       .  A
C495        C500   1.410       .  A
C495       Br502   1.924       .  S
C496        C497   1.422       .  A
C497        C498   1.411       .  A
C497       Br504   1.927       .  S
C498        C499   1.410       .  A
C498       Br503   1.935       .  S
C499        C500   1.401       .  A
C500       Br501   1.932   1_556  S
C505        C506   1.408       .  A
C505        C510   1.413       .  A
C505       Br512   1.928       .  S
C506       C1111   1.502   1_455  S
C506       C1595   1.406   1_455  A
C507        C508   1.421       .  A
C507       C1594   1.406       .  A
C507       Br514   1.937       .  S
C508       C1597   1.438       .  A
C508       Br513   1.921       .  S
C509        C510   1.423       .  A
C509       C1596   1.438   1_455  A
C510       Br511   1.910       .  S
C515        C516   1.409       .  A
C515        C520   1.405       .  A
C515       Br522   1.917       .  S
C516        C517   1.411       .  A
C517        C518   1.410       .  A
C517       Br524   1.932   1_554  S
C518        C519   1.414       .  A
C518       Br523   1.916       .  S
C519        C520   1.403       .  A
C520       Br521   1.905       .  S
C525        C526   1.427       .  A
C525        C530   1.402       .  A
C525       Br532   1.938       .  S
C526        C527   1.425       .  A
C527        C528   1.409       .  A
C527       Br534   1.924       .  S
C528        C529   1.399       .  A
C528       Br533   1.929   1_554  S
C529        C530   1.406       .  A
C530       Br531   1.941       .  S
C535        C540   1.418       .  A
C535       C1624   1.409       .  A
C535       Br542   1.933       .  S
C536        C537   1.409   1_655  A
C536       C1623   1.409       .  A
C537        C538   1.412       .  A
C537       Br544   1.921       .  S
C538        C539   1.413   1_455  A
C538       Br543   1.906       .  S
C539       C1628   1.428       .  A
C540       C1627   1.428       .  A
C540       Br541   1.921       .  S
Zr545       O547   2.425       .  S
Zr545       O548   2.479   1_655  S
Zr545      O1639   2.468       .  S
Zr545       O553   2.378   1_655  S
Zr545      O1642   2.380       .  S
Zr545       O555   2.411   1_656  S
Zr545      O1644   2.412   1_556  S
Zr545      O1634   2.436   1_656  S
O546      Zr1633   2.436   1_554  S
O546       H1690   0.990   1_554  S
O546       H1698   0.991       .  S
O547       C1655   1.283       .  A
O548        C569   1.294       .  A
O549       Zr559   2.412   1_556  S
O549        C568   1.280       .  A
O550       Zr558   2.386       .  S
O550        C569   1.275       .  A
O551      Zr1633   2.468       .  S
O551        C568   1.291       .  A
O552      Zr1104   2.464       .  S
O552        C567   1.290       .  A
O553       Zr558   2.378       .  S
O554      Zr1633   2.380       .  S
O554       Zr559   2.383   1_556  S
O554      Zr1104   2.359       .  S
O554        H589   0.967       .  S
O555       Zr558   2.392   1_554  S
O555       Zr575   2.411       .  S
O555        H592   0.965       .  S
O556      Zr1633   2.412   1_554  S
O556       Zr559   2.390       .  S
O556      Zr1663   2.416       .  S
Zr557       O576   2.429       .  S
Zr557       O584   2.457       .  S
Zr557      O1660   2.453       .  S
Zr557       O563   2.408   1_554  S
Zr557      O1652   2.410   1_554  S
Zr557      O1653   2.377       .  S
Zr557       O566   2.380       .  S
Zr557       O582   2.436   1_554  S
Zr558       O577   2.439   1_556  S
Zr559       O561   2.435       .  S
Zr560      O1096   2.464   1_665  S
Zr560      O1098   2.359   1_565  S
Zr560      O1651   2.409       .  S
Zr560       O564   2.405   1_655  S
Zr560      O1674   2.435       .  S
Zr560      O1675   2.435       .  S
Zr560       O562   2.435   1_655  S
O561        H598   0.990       .  S
O562        H593   0.989       .  S
O562        H607   0.990       .  S
O563      Zr1648   2.409       .  S
O564      Zr1645   2.410   1_456  S
O564        H590   0.966       .  S
O565      Zr1645   2.377   1_455  S
O566      Zr1119   2.368   1_565  S
O566        H591   0.966       .  S
C567       O1635   1.283       .  A
C567       C2138   1.502       .  S
C568       C1030   1.504       .  S
C569       C1043   1.478       .  S
O570        H606   0.990       .  S
O571        C573   1.277       .  A
O572      Zr1645   2.453   1_455  S
O572        C573   1.288       .  A
C573       C1073   1.470       .  S
O574      Zr1663   2.440       .  S
O574       H1691   0.990       .  S
Zr575      O1644   2.416   1_455  S
Zr575      O1110   2.368   1_455  S
Zr575      O1662   2.440       .  S
Zr575       O578   2.437       .  S
Zr575      O1667   2.438   1_455  S
O576       C1669   1.284       .  A
O577        H594   0.990       .  S
O577        H609   0.989       .  S
O578        H595   0.991       .  S
O579      Zr1663   2.438       .  S
O579        H599   0.991       .  S
O579        H608   0.989       .  S
O580        C581   1.291   1_455  A
C581       O1664   1.284       .  A
C581       C1080   1.501       .  S
O582        H601   0.990       .  S
O582       H1693   0.990       .  S
O583        H597   0.990       .  S
O583        H604   0.990       .  S
O584        C588   1.290       .  A
O585        C588   1.281       .  A
O586      Zr1648   2.435       .  S
O586        H596   0.990       .  S
O587      Zr1648   2.435       .  S
O587       H1688   0.990       .  S
C588       C1060   1.488       .  S
H600       O1675   0.989   1_455  S
H602       O1634   0.990   1_556  S
H603       O1662   0.990       .  S
H605       O1670   0.990   1_455  S
H610       O1634   0.991       .  S
C611        H612   1.100       .  S
C611       C1705   1.558       .  S
C611        C616   1.557       .  S
C611       C1703   1.557       .  S
C613        H614   1.092       .  S
C613        C619   1.536       .  S
C613       C1706   1.559       .  S
C613        C620   1.560       .  S
C615       C1699   1.557       .  S
C615        C618   1.394       .  D
C615       C1010   1.510       .  S
C616        C619   1.382       .  D
C616       C1003   1.513       .  S
C617       C1699   1.558       .  S
C617       C1708   1.399       .  D
C617       C1053   1.549       .  S
C618       C1701   1.559   1_455  S
C618        C980   1.542       .  S
C619        C990   1.507       .  S
C620       C1705   1.399       .  D
C620       C1020   1.529       .  S
Zr621       O623   2.427       .  S
Zr621       O624   2.456       .  S
Zr621      O1715   2.467       .  S
Zr621       O629   2.381       .  S
Zr621      O1718   2.378       .  S
Zr621       O631   2.412   1_554  S
Zr621      O1720   2.407   1_554  S
Zr621      O1710   2.436   1_554  S
O622      Zr1709   2.436   1_556  S
O622       H1766   0.990       .  S
O622       H1774   0.990   1_455  S
O623        C643   1.282       .  A
O624        C645   1.289       .  A
O625       Zr635   2.404   1_554  S
O625        C644   1.278       .  A
O626       Zr634   2.396   1_554  S
O626        C645   1.277       .  A
O627      Zr1709   2.467       .  S
O627        C644   1.292       .  A
O628       Zr636   2.459       .  S
O628        C643   1.290       .  A
O629       Zr634   2.378   1_554  S
O629       Zr636   2.363       .  S
O630      Zr1709   2.378       .  S
O630       Zr635   2.382   1_554  S
O630      Zr1724   2.361   1_455  S
O630        H665   0.966       .  S
O631       Zr634   2.394       .  S
O631       Zr651   2.407       .  S
O631        H668   0.966       .  S
O632      Zr1709   2.407   1_556  S
O632       Zr635   2.388       .  S
O632      Zr1739   2.413   1_455  S
Zr633       O652   2.430       .  S
Zr633      O1748   2.454       .  S
Zr633       O648   2.459       .  S
Zr633      O1727   2.407   1_556  S
Zr633       O640   2.408   1_556  S
Zr633       O641   2.380       .  S
Zr633      O1730   2.380       .  S
Zr633      O1746   2.438   1_556  S
Zr634       O647   2.404       .  S
Zr634       O640   2.391   1_556  S
Zr634       O641   2.379       .  S
Zr634       O653   2.438       .  S
Zr634       O646   2.435   1_556  S
Zr635       O661   2.404       .  S
Zr635       O639   2.394   1_556  S
Zr635       O642   2.378       .  S
Zr635       O637   2.434       .  S
Zr635       O659   2.435   1_556  S
Zr636      O1718   2.361       .  S
Zr636      O1727   2.406       .  S
Zr636       O640   2.403       .  S
Zr636      O1750   2.435       .  S
Zr636      O1751   2.436       .  S
Zr636       O638   2.436       .  S
O637        H674   0.990       .  S
O638        H669   0.990       .  S
O638        H683   0.990       .  S
O639      Zr1721   2.407   1_454  S
O639      Zr1724   2.406   1_455  S
O640        H666   0.965       .  S
O641       Zr651   2.369       .  S
O642      Zr1721   2.380   1_455  S
O642      Zr1739   2.368   1_455  S
O642        H667   0.964       .  S
C643        C973   1.502       .  S
C644        C953   1.495       .  S
C645        C960   1.468       .  S
O646        H682   0.990       .  S
O647        C649   1.280       .  A
O648        C649   1.289       .  A
C649        C940   1.478       .  S
O650      Zr1739   2.439       .  S
O650       H1767   0.990       .  S
Zr651       O656   2.462       .  S
Zr651      O1720   2.413       .  S
Zr651      O1730   2.368       .  S
Zr651      O1738   2.439       .  S
Zr651       O654   2.436       .  S
Zr651      O1743   2.437       .  S
O652        C657   1.285       .  A
O653        H670   0.990       .  S
O653        H685   0.991       .  S
O654        H671   0.990       .  S
O655      Zr1739   2.437   1_455  S
O655        H675   0.991       .  S
O655        H684   0.989       .  S
O656        C657   1.289       .  A
C657       C1023   1.500       .  S
O658      Zr1721   2.438   1_554  S
O658        H677   0.990   1_655  S
O658       H1769   0.990       .  S
O659        H673   0.991       .  S
O659        H680   0.990       .  S
O660      Zr1721   2.454   1_455  S
O660        C664   1.289       .  A
O661        C664   1.280       .  A
O662      Zr1724   2.435   1_455  S
O662        H672   0.990       .  S
O663      Zr1724   2.436       .  S
O663       H1764   0.990       .  S
C664        C930   1.487       .  S
H676       O1751   0.990       .  S
H678       O1710   0.990       .  S
H679       O1738   0.990       .  S
H681       O1746   0.990       .  S
H686       O1710   0.990       .  S
C687        H688   1.090       .  S
C687       C1781   1.544       .  S
C687        C692   1.556       .  S
C687       C1779   1.558       .  S
C689       H1778   1.087       .  S
C689        C695   1.543       .  S
C689       C1782   1.554       .  S
C689        C696   1.574       .  S
H690       C1777   1.087       .  S
C691       C1775   1.558   1_455  S
C691        C694   1.391       .  D
C691        C923   1.544       .  S
C692        C695   1.372       .  D
C692        C910   1.518       .  S
C693       C1775   1.544       .  S
C693       C1784   1.412       .  D
C693       C1083   1.529       .  S
C694       C1777   1.554       .  S
C694        C890   1.513       .  S
C695        C900   1.525       .  S
C696       C1781   1.412       .  D
C696        C970   1.552       .  S
Zr697       O699   2.435       .  S
Zr697       O700   2.467       .  S
Zr697       O703   2.459       .  S
Zr697       O705   2.375       .  S
Zr697       O706   2.381       .  S
Zr697       O707   2.407       .  S
Zr697       O708   2.415       .  S
Zr697       O698   2.436       .  S
O698        H754   0.990       .  S
O698        H762   0.991       .  S
O699        C719   1.284       .  A
O700        C721   1.291       .  A
O701       Zr711   2.401       .  S
O701        C720   1.278       .  A
O702       Zr710   2.374       .  S
O702        C721   1.272       .  A
O703        C720   1.290       .  A
O704        C719   1.293       .  A
O705       Zr710   2.375       .  S
O706       Zr711   2.386       .  S
O706        H741   0.965       .  S
O707       Zr710   2.394       .  S
O707       Zr727   2.413       .  S
O707        H744   0.966       .  S
O708       Zr711   2.391       .  S
O708       Zr727   2.415       .  S
Zr709       O728   2.428       .  S
Zr709       O736   2.478       .  S
Zr709       O724   2.480       .  S
Zr709       O715   2.413       .  S
Zr709       O716   2.415       .  S
Zr709       O717   2.372       .  S
Zr709       O718   2.377       .  S
Zr709       O734   2.436       .  S
Zr710       O729   2.436       .  S
Zr711       O713   2.434       .  S
Zr712       O715   2.414       .  S
Zr712       O716   2.413       .  S
Zr712       O738   2.435       .  S
Zr712       O739   2.435       .  S
Zr712       O714   2.435       .  S
O713        H750   0.990       .  S
O714        H745   0.990       .  S
O714        H759   0.989       .  S
O716        H742   0.966       .  S
O718        H743   0.966       .  S
C719        C883   1.512       .  S
C720       C1000   1.491       .  S
C721       C1013   1.464       .  S
O722        H758   0.990       .  S
O723        C725   1.274       .  A
O724        C725   1.296       .  A
C725        C920   1.485       .  S
O726       Zr727   2.438       .  S
O726        H755   0.990       .  S
Zr727       O730   2.437       .  S
Zr727       O731   2.438       .  S
O728        C733   1.284       .  A
O729        H746   0.991       .  S
O729        H761   0.988       .  S
O730        H747   0.991       .  S
O731        H751   0.990       .  S
O731        H760   0.990       .  S
O732        C733   1.292       .  A
C733        C870   1.495       .  S
O734        H753   0.990       .  S
O734        H757   0.990       .  S
O735        H749   0.991   1_565  S
O735        H756   0.989   1_565  S
O736        C740   1.293       .  A
O737        C740   1.280       .  A
O738        H748   0.990       .  S
O739        H752   0.990       .  S
C740        C913   1.514       .  S
C763        H764   1.082       .  S
C763        C769   1.560       .  S
C763        C768   1.549       .  S
C763        C767   1.562       .  S
C765        H766   1.085       .  S
C765        C771   1.561       .  S
C765        C770   1.534       .  S
C765        C772   1.569       .  S
C767        C770   1.369       .  D
C767        C963   1.511       .  S
C768        C771   1.395       .  D
C768        C950   1.524       .  S
C769        C772   1.414       .  D
C769        C860   1.560       .  S
C770       C1063   1.510       .  S
C771       C1070   1.540       .  S
C772        C873   1.541       .  S
Zr773       O775   2.423       .  S
Zr773       O776   2.453       .  S
Zr773       O779   2.478       .  S
Zr773       O781   2.385       .  S
Zr773       O782   2.374       .  S
Zr773       O783   2.411       .  S
Zr773       O784   2.405       .  S
Zr773       O774   2.435       .  S
O774        H830   0.990       .  S
O774        H838   0.991       .  S
O775        C795   1.281       .  A
O776        C797   1.289       .  A
O777       Zr787   2.393       .  S
O777        C796   1.276       .  A
O778       Zr786   2.395       .  S
O778        C797   1.278       .  A
O779        C796   1.294       .  A
O780       Zr788   2.480       .  S
O780        C795   1.294       .  A
O781       Zr786   2.390       .  S
O781       Zr788   2.368       .  S
O782       Zr787   2.380       .  S
O782       Zr788   2.348       .  S
O782        H817   0.963       .  S
O783       Zr786   2.394       .  S
O783       Zr803   2.400       .  S
O783        H820   0.965       .  S
O784       Zr787   2.393       .  S
O784       Zr803   2.409       .  S
Zr785       O804   2.425       .  S
Zr785       O812   2.463       .  S
Zr785       O800   2.453       .  S
Zr785       O791   2.408       .  S
Zr785       O792   2.411       .  S
Zr785       O793   2.379       .  S
Zr785       O794   2.378       .  S
Zr785       O810   2.437       .  S
Zr786       O799   2.413       .  S
Zr786       O792   2.392       .  S
Zr786       O793   2.377       .  S
Zr786       O805   2.437       .  S
Zr786       O798   2.434       .  S
Zr787       O813   2.410       .  S
Zr787       O791   2.390       .  S
Zr787       O794   2.372       .  S
Zr787       O789   2.433       .  S
Zr787       O811   2.438       .  S
Zr788       O791   2.416       .  S
Zr788       O792   2.406       .  S
Zr788       O814   2.436       .  S
Zr788       O815   2.436       .  S
Zr788       O790   2.435       .  S
O789        H826   0.990       .  S
O790        H821   0.991       .  S
O790        H835   0.989       .  S
O792        H818   0.967       .  S
O793       Zr803   2.375       .  S
O794       Zr803   2.364       .  S
O794        H819   0.964       .  S
C795        C863   1.512       .  S
C796        C893   1.472       .  S
C797        C903   1.465       .  S
O798        H834   0.990       .  S
O799        C801   1.281       .  A
O800        C801   1.289       .  A
C801        C993   1.485       .  S
O802       Zr803   2.439       .  S
O802        H831   0.990       .  S
Zr803       O808   2.449       .  S
Zr803       O806   2.437       .  S
Zr803       O807   2.438       .  S
O804        C809   1.283       .  A
O805        H822   0.990       .  S
O805        H837   0.990       .  S
O806        H823   0.990       .  S
O807        H827   0.990       .  S
O807        H836   0.990       .  S
O808        C809   1.286       .  A
C809        C850   1.476       .  S
O810        H829   0.990       .  S
O810        H833   0.990       .  S
O811        H825   0.990       .  S
O811        H832   0.990       .  S
O812        C816   1.290       .  A
O813        C816   1.281       .  A
O814        H824   0.990       .  S
O815        H828   0.990       .  S
C816        C983   1.491       .  S
C839        H840   1.104       .  S
C839        C845   1.554       .  S
C839        C844   1.539       .  S
C839        C843   1.556       .  S
C841        H842   1.106       .  S
C841        C847   1.557       .  S
C841        C846   1.558       .  S
C841        C848   1.567       .  S
C843        C846   1.390       .  D
C843        C943   1.529       .  S
C844        C847   1.378       .  D
C844        C933   1.509       .  S
C845        C848   1.395       .  D
C845        C853   1.521       .  S
C846       C1033   1.524       .  S
C847       C1040   1.522       .  S
C848        C880   1.539       .  S
C849        C850   1.399       .  A
C849        C854   1.413       .  A
C849       Br856   1.930       .  S
C850        C851   1.393       .  A
C851        C852   1.408       .  A
C851       Br858   1.929       .  S
C852        C853   1.417       .  A
C852       Br857   1.906       .  S
C853        C854   1.429       .  A
C854       Br855   1.910       .  S
C859        C860   1.409       .  A
C859        C864   1.408       .  A
C859       Br866   1.895       .  S
C860        C861   1.445       .  A
C861        C862   1.427       .  A
C861       Br868   1.937       .  S
C862        C863   1.412       .  A
C862       Br867   1.936       .  S
C863        C864   1.413       .  A
C864       Br865   1.931       .  S
C869        C870   1.401       .  A
C869        C874   1.417       .  A
C869       Br876   1.935       .  S
C870        C871   1.402       .  A
C871        C872   1.415       .  A
C871       Br878   1.919       .  S
C872        C873   1.418       .  A
C872       Br877   1.909       .  S
C873        C874   1.433       .  A
C874       Br875   1.907       .  S
C879        C880   1.422       .  A
C879        C884   1.416       .  A
C879       Br886   1.920       .  S
C880        C881   1.429       .  A
C881        C882   1.421       .  A
C881       Br888   1.919       .  S
C882        C883   1.410       .  A
C883        C884   1.415       .  A
C884       Br885   1.928       .  S
C889        C890   1.418       .  A
C889        C894   1.404       .  A
C889       Br896   1.912       .  S
C890        C891   1.421       .  A
C891        C892   1.412       .  A
C891       Br898   1.917       .  S
C892        C893   1.404       .  A
C892       Br897   1.932       .  S
C893        C894   1.404       .  A
C894       Br895   1.935       .  S
C899        C900   1.426       .  A
C899        C904   1.404       .  A
C899       Br906   1.913       .  S
C900        C901   1.427       .  A
C901        C902   1.412       .  A
C901       Br908   1.915       .  S
C902        C903   1.398       .  A
C902       Br907   1.932       .  S
C903        C904   1.399       .  A
C904       Br905   1.940       .  S
C909        C910   1.412       .  A
C909        C914   1.414       .  A
C909       Br916   1.932       .  S
C910        C911   1.418       .  A
C911        C912   1.411       .  A
C911       Br918   1.921       .  S
C912        C913   1.415       .  A
C912       Br917   1.937       .  S
C913        C914   1.427       .  A
C914       Br915   1.933       .  S
C919        C920   1.397       .  A
C919        C924   1.388       .  A
C919       Br926   1.924       .  S
C920        C921   1.425       .  A
C921        C922   1.424       .  A
C921       Br928   1.929       .  S
C922        C923   1.429       .  A
C922       Br927   1.932       .  S
C923        C924   1.406       .  A
C924       Br925   1.892       .  S
C929        C930   1.410       .  A
C929        C934   1.404       .  A
C929       Br936   1.931   1_556  S
C930        C931   1.410       .  A
C931        C932   1.409       .  A
C931       Br938   1.928       .  S
C932        C933   1.415       .  A
C932       Br937   1.914       .  S
C933        C934   1.415       .  A
C934       Br935   1.924       .  S
C939        C940   1.405       .  A
C939        C944   1.407       .  A
C939       Br946   1.944       .  S
C940        C941   1.403       .  A
C941        C942   1.414       .  A
C941       Br948   1.928   1_556  S
C942        C943   1.425       .  A
C942       Br947   1.924       .  S
C943        C944   1.425       .  A
C944       Br945   1.914       .  S
C949        C950   1.413       .  A
C949        C954   1.406       .  A
C949       Br956   1.895       .  S
C950        C951   1.420       .  A
C951        C952   1.415       .  A
C951       Br958   1.926       .  S
C952        C953   1.419       .  A
C952       Br957   1.936   1_554  S
C953        C954   1.409       .  A
C954       Br955   1.935       .  S
C959        C960   1.402       .  A
C959        C964   1.402       .  A
C959       Br966   1.936       .  S
C960        C961   1.401       .  A
C961        C962   1.412       .  A
C961       Br968   1.933   1_554  S
C962        C963   1.425       .  A
C962       Br967   1.918       .  S
C963        C964   1.415       .  A
C964       Br965   1.910       .  S
C969       C2058   1.443   1_455  A
C969        C974   1.412       .  A
C969       Br976   1.943       .  S
C970       C2057   1.443       .  A
C970        C971   1.420       .  A
C971        C972   1.414       .  A
C971       Br978   1.923       .  S
C972        C973   1.412       .  A
C972       Br977   1.927       .  S
C973       C2062   1.404       .  A
C974       C2061   1.404       .  A
C974       Br975   1.938       .  S
C979        C980   1.407       .  A
C979        C984   1.395       .  A
C979       Br986   1.925       .  S
C980        C981   1.420       .  A
C981        C982   1.414       .  A
C981       Br988   1.932       .  S
C982        C983   1.424       .  A
C982       Br987   1.930       .  S
C983        C984   1.410       .  A
C984       Br985   1.923       .  S
C989        C990   1.401       .  A
C989        C994   1.398       .  A
C989       Br996   1.916       .  S
C990        C991   1.417       .  A
C991        C992   1.416       .  A
C991       Br998   1.905       .  S
C992        C993   1.409       .  A
C992       Br997   1.929       .  S
C993        C994   1.397       .  A
C994       Br995   1.906       .  S
C999       C1000   1.411       .  A
C999       C1004   1.405       .  A
C999      Br1006   1.927       .  S
C1000      C1001   1.416       .  A
C1001      C1002   1.407       .  A
C1001     Br1008   1.932       .  S
C1002      C1003   1.412       .  A
C1002     Br1007   1.926       .  S
C1003      C1004   1.412       .  A
C1004     Br1005   1.918       .  S
C1009      C1010   1.418       .  A
C1009      C1014   1.411       .  A
C1009     Br1016   1.921       .  S
C1010      C1011   1.416       .  A
C1011      C1012   1.402       .  A
C1011     Br1018   1.897       .  S
C1012      C1013   1.401       .  A
C1012     Br1017   1.942       .  S
C1013      C1014   1.405       .  A
C1014     Br1015   1.929       .  S
C1019      C1020   1.418       .  A
C1019      C1024   1.415       .  A
C1019     Br1026   1.918       .  S
C1020      C2109   1.427       .  A
C1021      C2108   1.427       .  A
C1021      C1022   1.416       .  A
C1021     Br1028   1.924       .  S
C1022      C2111   1.406   1_455  A
C1022     Br1027   1.931       .  S
C1023      C2110   1.406       .  A
C1023      C1024   1.409       .  A
C1024     Br1025   1.920       .  S
C1029      C1030   1.419       .  A
C1029      C1034   1.410       .  A
C1029     Br1036   1.938   1_556  S
C1030      C1031   1.415       .  A
C1031      C1032   1.414       .  A
C1031     Br1038   1.934       .  S
C1032      C1033   1.417       .  A
C1032     Br1037   1.907       .  S
C1033      C1034   1.417       .  A
C1034     Br1035   1.922       .  S
C1039      C1040   1.425       .  A
C1039      C1044   1.410       .  A
C1039     Br1046   1.924       .  S
C1040      C1041   1.422       .  A
C1041      C1042   1.411       .  A
C1041     Br1048   1.927       .  S
C1042      C1043   1.410       .  A
C1042     Br1047   1.935       .  S
C1043      C1044   1.401       .  A
C1044     Br1045   1.932   1_556  S
C1049      C1050   1.408       .  A
C1049      C1054   1.413       .  A
C1049     Br1056   1.928       .  S
C1050      C1655   1.502   1_455  S
C1050      C2139   1.406   1_455  A
C1051      C2138   1.406       .  A
C1051      C1052   1.421       .  A
C1051     Br1058   1.937       .  S
C1052      C2141   1.438       .  A
C1052     Br1057   1.921       .  S
C1053      C2140   1.438   1_455  A
C1053      C1054   1.423       .  A
C1054     Br1055   1.910       .  S
C1059      C1060   1.409       .  A
C1059      C1064   1.405       .  A
C1059     Br1066   1.917       .  S
C1060      C1061   1.411       .  A
C1061      C1062   1.410       .  A
C1061     Br1068   1.932   1_554  S
C1062      C1063   1.414       .  A
C1062     Br1067   1.915       .  S
C1063      C1064   1.404       .  A
C1064     Br1065   1.905       .  S
C1069      C1070   1.428       .  A
C1069      C1074   1.402       .  A
C1069     Br1076   1.938       .  S
C1070      C1071   1.426       .  A
C1071      C1072   1.409       .  A
C1071     Br1078   1.924       .  S
C1072      C1073   1.399       .  A
C1072     Br1077   1.929   1_554  S
C1073      C1074   1.406       .  A
C1074     Br1075   1.941       .  S
C1079      C2168   1.409       .  A
C1079      C1084   1.418       .  A
C1079     Br1086   1.933       .  S
C1080      C2167   1.409       .  A
C1080      C1081   1.409   1_655  A
C1081      C1082   1.412       .  A
C1081     Br1088   1.921       .  S
C1082      C1083   1.413   1_455  A
C1082     Br1087   1.906       .  S
C1083      C2172   1.428       .  A
C1084      C2171   1.428       .  A
C1084     Br1085   1.921       .  S
Zr1089     O1091   2.425       .  S
Zr1089     O1092   2.479       .  S
Zr1089     O1097   2.379       .  S
Zr1089     O1099   2.411   1_556  S
O1092      C1113   1.294       .  A
O1093     Zr1103   2.413   1_546  S
O1093      C1112   1.280       .  A
O1094     Zr1102   2.386   1_545  S
O1094      C1113   1.275       .  A
O1095      C1112   1.291       .  A
O1096      C1111   1.290   1_455  A
O1097     Zr1102   2.378   1_545  S
O1097     Zr1648   2.365   1_545  S
O1098     Zr1103   2.383   1_546  S
O1098      H1133   0.966       .  S
O1099     Zr1102   2.391   1_544  S
O1099     Zr1119   2.411       .  S
O1099      H1136   0.965       .  S
O1100     Zr1103   2.389   1_545  S
Zr1101     O1120   2.429       .  S
Zr1101     O1128   2.457       .  S
Zr1101     O1107   2.407   1_554  S
Zr1101     O1110   2.379       .  S
Zr1101     O1126   2.436   1_554  S
Zr1102     O1659   2.386   1_556  S
Zr1102     O1652   2.391       .  S
Zr1102     O1653   2.375   1_556  S
Zr1102     O1121   2.439   1_566  S
Zr1102     O1658   2.436       .  S
Zr1103     O1673   2.411       .  S
Zr1103     O1651   2.393   1_554  S
Zr1103     O1654   2.383       .  S
Zr1103     O1105   2.435   1_565  S
Zr1103     O1671   2.435   1_554  S
Zr1104     O1641   2.364       .  S
Zr1104     O1108   2.405       .  S
Zr1104     O1106   2.435       .  S
O1105      H1142   0.990       .  S
O1106      H1137   0.989       .  S
O1106      H1151   0.990       .  S
O1107     Zr1647   2.393   1_556  S
O1108     Zr1646   2.391       .  S
O1108      H1134   0.966       .  S
O1109     Zr1646   2.375   1_554  S
O1109     Zr1663   2.365       .  S
O1110     Zr1647   2.383       .  S
O1110      H1135   0.966       .  S
C1112      C1574   1.504       .  S
C1113      C1587   1.478       .  S
O1114     Zr1646   2.436       .  S
O1114      H1150   0.990       .  S
O1115     Zr1646   2.386   1_554  S
O1115      C1117   1.277       .  A
O1116      C1117   1.288       .  A
C1117      C1617   1.470       .  S
Zr1119     O1668   2.471   1_545  S
Zr1119     O1653   2.365   1_545  S
Zr1119     O1122   2.437       .  S
O1121      H1138   0.990       .  S
O1121      H1153   0.989       .  S
O1122      H1139   0.991       .  S
O1123      H1143   0.991       .  S
O1123      H1152   0.989       .  S
O1124     Zr1663   2.471       .  S
O1124      C1125   1.291       .  A
C1125      C1624   1.500       .  S
O1126      H1145   0.990       .  S
O1127     Zr1647   2.435   1_556  S
O1127      H1141   0.990       .  S
O1127      H1148   0.990       .  S
O1128      C1132   1.290       .  A
O1129     Zr1647   2.411       .  S
O1129      C1132   1.281       .  A
O1130      H1140   0.990       .  S
C1132      C1604   1.488       .  S
C1155      H1156   1.100       .  S
C1155      C1160   1.557   1_455  S
C1157      H1158   1.092       .  S
C1157      C1163   1.536       .  S
C1157      C1164   1.560   1_655  S
C1159      C1162   1.394       .  D
C1159      C1554   1.510       .  S
C1160      C1163   1.382       .  D
C1160      C1547   1.513       .  S
C1161      C1597   1.549       .  S
C1162      C1524   1.542       .  S
C1163      C1534   1.507       .  S
C1164      C1564   1.529       .  S
Zr1165     O1167   2.427       .  S
Zr1165     O1168   2.456   1_455  S
Zr1165     O1173   2.381   1_455  S
Zr1165     O1175   2.412   1_454  S
O1167      C1187   1.282       .  A
O1168      C1189   1.289       .  A
O1169     Zr1179   2.403   1_554  S
O1169      C1188   1.278       .  A
O1170     Zr1178   2.396   1_554  S
O1170      C1189   1.277       .  A
O1171      C1188   1.292       .  A
O1172     Zr1180   2.459       .  S
O1172      C1187   1.290   1_655  A
O1173     Zr1178   2.378   1_554  S
O1173     Zr1180   2.363       .  S
O1174     Zr1179   2.382   1_554  S
O1174      H1209   0.966       .  S
O1175     Zr1178   2.394       .  S
O1175     Zr1195   2.407       .  S
O1175      H1212   0.966       .  S
O1176     Zr1179   2.388       .  S
Zr1177     O1196   2.430       .  S
Zr1177     O1192   2.458       .  S
Zr1177     O1184   2.408   1_556  S
Zr1177     O1185   2.380       .  S
Zr1178     O1191   2.405       .  S
Zr1178     O1184   2.391   1_556  S
Zr1178     O1185   2.379       .  S
Zr1178     O1197   2.438       .  S
Zr1178     O1190   2.435   1_556  S
Zr1179     O1205   2.405       .  S
Zr1179     O1183   2.394   1_556  S
Zr1179     O1186   2.378       .  S
Zr1179     O1181   2.434       .  S
Zr1179     O1203   2.435   1_556  S
Zr1180     O1184   2.403       .  S
Zr1180     O1182   2.436       .  S
O1181      H1218   0.990       .  S
O1182      H1213   0.990       .  S
O1182      H1227   0.989       .  S
O1184      H1210   0.965       .  S
O1185     Zr1195   2.369       .  S
O1186      H1211   0.964       .  S
C1187      C1517   1.502       .  S
C1188      C1497   1.495       .  S
C1189      C1504   1.468       .  S
O1190      H1226   0.990       .  S
O1191      C1193   1.280       .  A
O1192      C1193   1.289       .  A
C1193      C1484   1.478       .  S
Zr1195     O1200   2.463       .  S
Zr1195     O1198   2.436       .  S
O1196      C1201   1.285       .  A
O1197      H1214   0.990       .  S
O1197      H1229   0.991       .  S
O1198      H1215   0.990       .  S
O1199      H1219   0.991       .  S
O1199      H1228   0.989       .  S
O1200      C1201   1.289       .  A
C1201      C1567   1.500       .  S
O1202      H1221   0.990       .  S
O1203      H1217   0.991       .  S
O1203      H1224   0.990       .  S
O1204      C1208   1.289       .  A
O1205      C1208   1.280       .  A
O1206      H1216   0.990       .  S
C1208      C1474   1.488       .  S
C1231      H1232   1.090       .  S
C1231      C1236   1.556       .  S
C1233      C1239   1.543   1_455  S
C1233      C1240   1.574   1_455  S
C1235      C1238   1.391       .  D
C1235      C1467   1.544       .  S
C1236      C1239   1.372       .  D
C1236      C1454   1.518       .  S
C1237      C1627   1.529       .  S
C1238      C1434   1.513       .  S
C1239      C1444   1.525       .  S
C1240      C1514   1.552       .  S
Zr1241     O1243   2.435       .  S
Zr1241     O1244   2.467       .  S
Zr1241     O1247   2.459       .  S
Zr1241     O1249   2.375       .  S
Zr1241     O1250   2.380       .  S
Zr1241     O1251   2.407       .  S
Zr1241     O1252   2.415       .  S
Zr1241     O1242   2.436       .  S
O1242      H1298   0.990       .  S
O1242      H1306   0.990       .  S
O1243      C1263   1.284       .  A
O1244      C1265   1.291       .  A
O1245     Zr1255   2.401       .  S
O1245      C1264   1.278       .  A
O1246     Zr1254   2.374       .  S
O1246      C1265   1.272       .  A
O1247      C1264   1.290       .  A
O1248     Zr1800   2.478   1_545  S
O1248      C1263   1.293       .  A
O1249     Zr1254   2.375       .  S
O1249     Zr1800   2.362   1_545  S
O1250     Zr1255   2.386       .  S
O1250     Zr1800   2.363   1_545  S
O1250      H1285   0.965       .  S
O1251     Zr1254   2.394       .  S
O1251     Zr1271   2.412       .  S
O1251      H1288   0.966       .  S
O1252     Zr1255   2.391       .  S
O1252     Zr1271   2.415       .  S
Zr1253     O1272   2.428       .  S
Zr1253     O1280   2.477       .  S
Zr1253     O1268   2.480       .  S
Zr1253     O1259   2.413       .  S
Zr1253     O1260   2.415       .  S
Zr1253     O1261   2.372       .  S
Zr1253     O1262   2.377       .  S
Zr1253     O1278   2.435       .  S
Zr1254     O1811   2.381   1_545  S
Zr1254     O1804   2.390   1_545  S
Zr1254     O1805   2.377   1_545  S
Zr1254     O1273   2.436       .  S
Zr1254     O1810   2.436   1_545  S
Zr1255     O1825   2.412   1_545  S
Zr1255     O1803   2.389   1_545  S
Zr1255     O1806   2.379   1_545  S
Zr1255     O1257   2.434       .  S
Zr1255     O1823   2.435   1_545  S
Zr1256     O1792   2.478       .  S
Zr1256     O1793   2.362       .  S
Zr1256     O1794   2.363       .  S
Zr1256     O1259   2.414       .  S
Zr1256     O1260   2.413       .  S
Zr1256     O1282   2.435       .  S
Zr1256     O1283   2.435       .  S
Zr1256     O1258   2.435       .  S
O1257      H1294   0.990       .  S
O1258      H1289   0.990       .  S
O1258      H1303   0.989       .  S
O1259     Zr1799   2.389       .  S
O1260     Zr1798   2.390       .  S
O1260      H1286   0.966       .  S
O1261     Zr1798   2.376       .  S
O1261     Zr1815   2.359       .  S
O1262     Zr1799   2.379       .  S
O1262     Zr1815   2.367       .  S
O1262      H1287   0.966       .  S
C1263      C1427   1.512       .  S
C1264      C1544   1.491       .  S
C1265      C1557   1.464       .  S
O1266     Zr1798   2.436       .  S
O1266      H1302   0.990       .  S
O1267     Zr1798   2.381       .  S
O1267      C1269   1.274       .  A
O1268      C1269   1.296       .  A
C1269      C1464   1.485       .  S
O1270     Zr1271   2.438       .  S
O1270      H1299   0.990       .  S
Zr1271     O1820   2.473   1_545  S
Zr1271     O1805   2.359   1_545  S
Zr1271     O1806   2.367   1_545  S
Zr1271     O1274   2.437       .  S
Zr1271     O1275   2.438       .  S
O1272      C1277   1.284       .  A
O1273      H1290   0.991       .  S
O1273      H1305   0.988       .  S
O1274      H1291   0.991       .  S
O1275      H1295   0.990       .  S
O1275      H1304   0.990       .  S
O1276     Zr1815   2.473       .  S
O1276      C1277   1.292       .  A
C1277      C1414   1.495       .  S
O1278      H1297   0.990       .  S
O1278      H1301   0.990       .  S
O1279     Zr1799   2.435       .  S
O1279      H1293   0.991       .  S
O1279      H1300   0.989       .  S
O1280      C1284   1.293       .  A
O1281     Zr1799   2.412       .  S
O1281      C1284   1.280       .  A
O1282      H1292   0.990       .  S
O1283      H1296   0.990       .  S
C1284      C1457   1.514       .  S
C1307      H1308   1.082       .  S
C1307      C1313   1.560       .  S
C1307      C1312   1.549       .  S
C1307      C1311   1.562       .  S
C1309      H1310   1.085       .  S
C1309      C1315   1.561       .  S
C1309      C1314   1.534       .  S
C1309      C1316   1.569       .  S
C1311      C1314   1.369       .  D
C1311      C1507   1.511       .  S
C1312      C1315   1.395       .  D
C1312      C1494   1.524       .  S
C1313      C1316   1.414       .  D
C1313      C1404   1.560       .  S
C1314      C1607   1.510       .  S
C1315      C1614   1.540       .  S
C1316      C1417   1.542       .  S
Zr1317     O1319   2.424       .  S
Zr1317     O1320   2.452       .  S
Zr1317     O1323   2.478       .  S
Zr1317     O1325   2.385       .  S
Zr1317     O1326   2.374       .  S
Zr1317     O1327   2.411       .  S
Zr1317     O1328   2.405       .  S
Zr1317     O1318   2.435       .  S
O1318      H1374   0.990       .  S
O1318      H1382   0.991       .  S
O1319      C1339   1.281       .  A
O1320      C1341   1.289       .  A
O1321     Zr1331   2.393       .  S
O1321      C1340   1.276       .  A
O1322     Zr1330   2.395       .  S
O1322      C1341   1.278       .  A
O1323      C1340   1.294       .  A
O1324     Zr1332   2.480       .  S
O1324      C1339   1.294       .  A
O1325     Zr1330   2.390       .  S
O1325     Zr1332   2.368       .  S
O1326     Zr1331   2.380       .  S
O1326     Zr1332   2.348       .  S
O1326      H1361   0.963       .  S
O1327     Zr1330   2.394       .  S
O1327     Zr1347   2.400       .  S
O1327      H1364   0.965       .  S
O1328     Zr1331   2.393       .  S
O1328     Zr1347   2.409       .  S
Zr1329     O1348   2.425       .  S
Zr1329     O1356   2.463       .  S
Zr1329     O1344   2.453       .  S
Zr1329     O1335   2.408       .  S
Zr1329     O1336   2.411       .  S
Zr1329     O1337   2.379       .  S
Zr1329     O1338   2.378       .  S
Zr1329     O1354   2.437       .  S
Zr1330     O1343   2.413       .  S
Zr1330     O1336   2.392       .  S
Zr1330     O1337   2.376       .  S
Zr1330     O1349   2.437       .  S
Zr1330     O1342   2.434       .  S
Zr1331     O1357   2.410       .  S
Zr1331     O1335   2.390       .  S
Zr1331     O1338   2.372       .  S
Zr1331     O1333   2.433       .  S
Zr1331     O1355   2.437       .  S
Zr1332     O1335   2.416       .  S
Zr1332     O1336   2.406       .  S
Zr1332     O1358   2.436       .  S
Zr1332     O1359   2.436       .  S
Zr1332     O1334   2.435       .  S
O1333      H1370   0.990       .  S
O1334      H1365   0.991       .  S
O1334      H1379   0.989       .  S
O1336      H1362   0.967       .  S
O1337     Zr1347   2.375       .  S
O1338     Zr1347   2.364       .  S
O1338      H1363   0.964       .  S
C1339      C1407   1.512       .  S
C1340      C1437   1.472       .  S
C1341      C1447   1.465       .  S
O1342      H1378   0.990       .  S
O1343      C1345   1.281       .  A
O1344      C1345   1.289       .  A
C1345      C1537   1.485       .  S
O1346     Zr1347   2.439       .  S
O1346      H1375   0.990       .  S
Zr1347     O1352   2.449       .  S
Zr1347     O1350   2.437       .  S
Zr1347     O1351   2.438       .  S
O1348      C1353   1.284       .  A
O1349      H1366   0.990       .  S
O1349      H1381   0.990       .  S
O1350      H1367   0.990       .  S
O1351      H1371   0.990       .  S
O1351      H1380   0.990       .  S
O1352      C1353   1.286       .  A
C1353      C1394   1.476       .  S
O1354      H1373   0.990       .  S
O1354      H1377   0.990       .  S
O1355      H1369   0.990       .  S
O1355      H1376   0.990       .  S
O1356      C1360   1.291       .  A
O1357      C1360   1.281       .  A
O1358      H1368   0.990       .  S
O1359      H1372   0.990       .  S
C1360      C1527   1.491       .  S
C1383      H1384   1.104       .  S
C1383      C1389   1.555       .  S
C1383      C1388   1.539       .  S
C1383      C1387   1.556       .  S
C1385      H1386   1.106       .  S
C1385      C1391   1.557       .  S
C1385      C1390   1.558       .  S
C1385      C1392   1.567       .  S
C1387      C1390   1.390       .  D
C1387      C1487   1.529       .  S
C1388      C1391   1.378       .  D
C1388      C1477   1.509       .  S
C1389      C1392   1.395       .  D
C1389      C1397   1.521       .  S
C1390      C1577   1.523       .  S
C1391      C1584   1.522       .  S
C1392      C1424   1.540       .  S
C1393      C1394   1.399       .  A
C1393      C1398   1.413       .  A
C1393     Br1400   1.930       .  S
C1394      C1395   1.393       .  A
C1395      C1396   1.408       .  A
C1395     Br1402   1.929       .  S
C1396      C1397   1.417       .  A
C1396     Br1401   1.905       .  S
C1397      C1398   1.429       .  A
C1398     Br1399   1.910       .  S
C1403      C1404   1.409       .  A
C1403      C1408   1.408       .  A
C1403     Br1410   1.895       .  S
C1404      C1405   1.445       .  A
C1405      C1406   1.427       .  A
C1405     Br1412   1.937       .  S
C1406      C1407   1.412       .  A
C1406     Br1411   1.936       .  S
C1407      C1408   1.413       .  A
C1408     Br1409   1.931       .  S
C1413      C1414   1.401       .  A
C1413      C1418   1.417       .  A
C1413     Br1420   1.935       .  S
C1414      C1415   1.402       .  A
C1415      C1416   1.415       .  A
C1415     Br1422   1.919       .  S
C1416      C1417   1.418       .  A
C1416     Br1421   1.909       .  S
C1417      C1418   1.433       .  A
C1418     Br1419   1.907       .  S
C1423      C1424   1.423       .  A
C1423      C1428   1.416       .  A
C1423     Br1430   1.921       .  S
C1424      C1425   1.429       .  A
C1425      C1426   1.421       .  A
C1425     Br1432   1.919       .  S
C1426      C1427   1.410       .  A
C1426     Br1975   1.934       .  S
C1427      C1428   1.415       .  A
C1428     Br1429   1.928       .  S
Br1431     C1970   1.934       .  S
C1433      C1434   1.418       .  A
C1433      C1438   1.404       .  A
C1433     Br1440   1.912       .  S
C1434      C1435   1.421       .  A
C1435      C1436   1.412       .  A
C1435     Br1442   1.916       .  S
C1436      C1437   1.404       .  A
C1436     Br1441   1.932       .  S
C1437      C1438   1.404       .  A
C1438     Br1439   1.935       .  S
C1443      C1444   1.426       .  A
C1443      C1448   1.404       .  A
C1443     Br1450   1.913       .  S
C1444      C1445   1.427       .  A
C1445      C1446   1.412       .  A
C1445     Br1452   1.915       .  S
C1446      C1447   1.398       .  A
C1446     Br1451   1.932       .  S
C1447      C1448   1.399       .  A
C1448     Br1449   1.940       .  S
C1453      C1454   1.412       .  A
C1453      C1458   1.414       .  A
C1453     Br1460   1.932       .  S
C1454      C1455   1.418       .  A
C1455      C1456   1.411       .  A
C1455     Br1462   1.921       .  S
C1456      C1457   1.415       .  A
C1456     Br1461   1.937       .  S
C1457      C1458   1.427       .  A
C1458     Br1459   1.933       .  S
C1463      C1464   1.397       .  A
C1463      C1468   1.388       .  A
C1463     Br1470   1.924       .  S
C1464      C1465   1.425       .  A
C1465      C1466   1.424       .  A
C1465     Br1472   1.929       .  S
C1466      C1467   1.429       .  A
C1466     Br1471   1.932       .  S
C1467      C1468   1.406       .  A
C1468     Br1469   1.893       .  S
C1473      C1474   1.410       .  A
C1473      C1478   1.404       .  A
C1473     Br1480   1.931   1_556  S
C1474      C1475   1.410       .  A
C1475      C1476   1.409       .  A
C1475     Br1482   1.927       .  S
C1476      C1477   1.415       .  A
C1476     Br1481   1.914       .  S
C1477      C1478   1.415       .  A
C1478     Br1479   1.924       .  S
C1483      C1484   1.405       .  A
C1483      C1488   1.407       .  A
C1483     Br1490   1.944       .  S
C1484      C1485   1.403       .  A
C1485      C1486   1.414       .  A
C1485     Br1492   1.928   1_556  S
C1486      C1487   1.425       .  A
C1486     Br1491   1.924       .  S
C1487      C1488   1.425       .  A
C1488     Br1489   1.914       .  S
C1493      C1494   1.413       .  A
C1493      C1498   1.406       .  A
C1493     Br1500   1.895       .  S
C1494      C1495   1.420       .  A
C1495      C1496   1.415       .  A
C1495     Br1502   1.926       .  S
C1496      C1497   1.419       .  A
C1496     Br1501   1.936   1_554  S
C1497      C1498   1.409       .  A
C1498     Br1499   1.935       .  S
C1503      C1504   1.402       .  A
C1503      C1508   1.402       .  A
C1503     Br1510   1.936       .  S
C1504      C1505   1.401       .  A
C1505      C1506   1.412       .  A
C1505     Br1512   1.933   1_554  S
C1506      C1507   1.425       .  A
C1506     Br1511   1.918       .  S
C1507      C1508   1.415       .  A
C1508     Br1509   1.910       .  S
C1513      C1518   1.412       .  A
C1513     Br1520   1.943       .  S
C1514      C1515   1.421       .  A
C1515      C1516   1.414       .  A
C1515     Br1522   1.923       .  S
C1516      C1517   1.412   1_655  A
C1516     Br1521   1.927       .  S
C1518     Br1519   1.938       .  S
C1523      C1524   1.407       .  A
C1523      C1528   1.395       .  A
C1523     Br1530   1.924       .  S
C1524      C1525   1.420       .  A
C1525      C1526   1.414       .  A
C1525     Br1532   1.933       .  S
C1526      C1527   1.424       .  A
C1526     Br1531   1.930       .  S
C1527      C1528   1.410       .  A
C1528     Br1529   1.923       .  S
C1533      C1534   1.401       .  A
C1533      C1538   1.398       .  A
C1533     Br1540   1.916       .  S
C1534      C1535   1.417       .  A
C1535      C1536   1.416       .  A
C1535     Br1542   1.905       .  S
C1536      C1537   1.409       .  A
C1536     Br1541   1.929       .  S
C1537      C1538   1.397       .  A
C1538     Br1539   1.906       .  S
C1543      C1544   1.411       .  A
C1543      C1548   1.405       .  A
C1543     Br1550   1.927       .  S
C1544      C1545   1.416       .  A
C1545      C1546   1.407       .  A
C1545     Br1552   1.932       .  S
C1546      C1547   1.412       .  A
C1546     Br1551   1.926       .  S
C1547      C1548   1.412       .  A
C1548     Br1549   1.918       .  S
C1553      C1554   1.418       .  A
C1553      C1558   1.411       .  A
C1553     Br1560   1.921       .  S
C1554      C1555   1.416       .  A
C1555      C1556   1.402       .  A
C1555     Br1562   1.897       .  S
C1556      C1557   1.401       .  A
C1556     Br1561   1.942       .  S
C1557      C1558   1.405       .  A
C1558     Br1559   1.929       .  S
C1563      C1564   1.418   1_655  A
C1563      C1568   1.415       .  A
C1563     Br1570   1.918       .  S
C1565      C1566   1.416       .  A
C1565     Br1572   1.924       .  S
C1566     Br1571   1.931       .  S
C1567      C1568   1.409       .  A
C1568     Br1569   1.920       .  S
C1573      C1574   1.419       .  A
C1573      C1578   1.410       .  A
C1573     Br1580   1.938   1_556  S
C1574      C1575   1.415       .  A
C1575      C1576   1.414       .  A
C1575     Br1582   1.934       .  S
C1576      C1577   1.417       .  A
C1576     Br1581   1.907       .  S
C1577      C1578   1.417       .  A
C1578     Br1579   1.921       .  S
C1583      C1584   1.425       .  A
C1583      C1588   1.410       .  A
C1583     Br1590   1.924       .  S
C1584      C1585   1.422       .  A
C1585      C1586   1.411       .  A
C1585     Br1592   1.927       .  S
C1586      C1587   1.410       .  A
C1586     Br1591   1.935       .  S
C1587      C1588   1.401       .  A
C1588     Br1589   1.932   1_556  S
C1593      C1594   1.408       .  A
C1593      C1598   1.413       .  A
C1593     Br1600   1.928       .  S
C1595      C1596   1.421       .  A
C1595     Br1602   1.937       .  S
C1596     Br1601   1.921       .  S
C1597      C1598   1.423       .  A
C1598     Br1599   1.910       .  S
C1603      C1604   1.409       .  A
C1603      C1608   1.405       .  A
C1603     Br1610   1.917       .  S
C1604      C1605   1.411       .  A
C1605      C1606   1.410       .  A
C1605     Br1612   1.932   1_554  S
C1606      C1607   1.414       .  A
C1606     Br1611   1.916       .  S
C1607      C1608   1.403       .  A
C1608     Br1609   1.905       .  S
C1613      C1614   1.427       .  A
C1613      C1618   1.402       .  A
C1613     Br1620   1.938       .  S
C1614      C1615   1.425       .  A
C1615      C1616   1.409       .  A
C1615     Br1622   1.924       .  S
C1616      C1617   1.399       .  A
C1616     Br1621   1.929   1_554  S
C1617      C1618   1.406       .  A
C1618     Br1619   1.941       .  S
C1623      C1628   1.418       .  A
C1623     Br1630   1.933       .  S
C1624      C1625   1.409       .  A
C1625      C1626   1.412       .  A
C1625     Br1632   1.921       .  S
C1626      C1627   1.413       .  A
C1626     Br1631   1.906       .  S
C1628     Br1629   1.921       .  S
Zr1633     O1635   2.425       .  S
Zr1633     O1636   2.479       .  S
Zr1633     O1641   2.378       .  S
Zr1633     O1643   2.411   1_556  S
O1636      C1657   1.294       .  A
O1637     Zr1647   2.412   1_556  S
O1637      C1656   1.280       .  A
O1638     Zr1646   2.386       .  S
O1638      C1657   1.275       .  A
O1639      C1656   1.291       .  A
O1640      C1655   1.290   1_455  A
O1641     Zr1646   2.378       .  S
O1642     Zr1647   2.383   1_556  S
O1642      H1677   0.967       .  S
O1643     Zr1646   2.392   1_554  S
O1643     Zr1663   2.411       .  S
O1643      H1680   0.964       .  S
O1644     Zr1647   2.390       .  S
Zr1645     O1664   2.429       .  S
Zr1645     O1672   2.457       .  S
Zr1645     O1651   2.408   1_554  S
Zr1645     O1654   2.380       .  S
Zr1645     O1670   2.436   1_554  S
Zr1646     O1665   2.439   1_556  S
Zr1647     O1649   2.435       .  S
Zr1648     O1652   2.405       .  S
Zr1648     O1650   2.435       .  S
O1649      H1686   0.990       .  S
O1650      H1681   0.989       .  S
O1650      H1695   0.990       .  S
O1652      H1678   0.966       .  S
O1654      H1679   0.966       .  S
C1656      C2118   1.504       .  S
C1657      C2131   1.478       .  S
O1658      H1694   0.990       .  S
O1659      C1661   1.277       .  A
O1660      C1661   1.288       .  A
C1661      C2161   1.470       .  S
Zr1663     O1666   2.437       .  S
O1665      H1682   0.990       .  S
O1665      H1697   0.989       .  S
O1666      H1683   0.991       .  S
O1667      H1687   0.991       .  S
O1667      H1696   0.989       .  S
O1668      C1669   1.291       .  A
C1669      C2168   1.501       .  S
O1670      H1689   0.990       .  S
O1671      H1685   0.990       .  S
O1671      H1692   0.990       .  S
O1672      C1676   1.290       .  A
O1673      C1676   1.281       .  A
O1674      H1684   0.990       .  S
C1676      C2148   1.488       .  S
C1699      H1700   1.100       .  S
C1699      C1704   1.557   1_455  S
C1701      H1702   1.092       .  S
C1701      C1707   1.536       .  S
C1701      C1708   1.560   1_655  S
C1703      C1706   1.394       .  D
C1703      C2098   1.510       .  S
C1704      C1707   1.382       .  D
C1704      C2091   1.513       .  S
C1705      C2141   1.549       .  S
C1706      C2068   1.542       .  S
C1707      C2078   1.507       .  S
C1708      C2108   1.529       .  S
Zr1709     O1711   2.427       .  S
Zr1709     O1712   2.456   1_455  S
Zr1709     O1717   2.381   1_455  S
Zr1709     O1719   2.412   1_454  S
O1711      C1731   1.282       .  A
O1712      C1733   1.289       .  A
O1713     Zr1723   2.404   1_554  S
O1713      C1732   1.278       .  A
O1714     Zr1722   2.396   1_554  S
O1714      C1733   1.277       .  A
O1715      C1732   1.292       .  A
O1716     Zr1724   2.459       .  S
O1716      C1731   1.290   1_655  A
O1717     Zr1722   2.378   1_554  S
O1717     Zr1724   2.363       .  S
O1718     Zr1723   2.382   1_554  S
O1718      H1753   0.966       .  S
O1719     Zr1722   2.394       .  S
O1719     Zr1739   2.407       .  S
O1719      H1756   0.966       .  S
O1720     Zr1723   2.388       .  S
Zr1721     O1740   2.430       .  S
Zr1721     O1736   2.459       .  S
Zr1721     O1728   2.408   1_556  S
Zr1721     O1729   2.380       .  S
Zr1722     O1735   2.404       .  S
Zr1722     O1728   2.391   1_556  S
Zr1722     O1729   2.379       .  S
Zr1722     O1741   2.438       .  S
Zr1722     O1734   2.435   1_556  S
Zr1723     O1749   2.404       .  S
Zr1723     O1727   2.394   1_556  S
Zr1723     O1730   2.378       .  S
Zr1723     O1725   2.434       .  S
Zr1723     O1747   2.435   1_556  S
Zr1724     O1728   2.403       .  S
Zr1724     O1726   2.436       .  S
O1725      H1762   0.990       .  S
O1726      H1757   0.990       .  S
O1726      H1771   0.989       .  S
O1728      H1754   0.965       .  S
O1729     Zr1739   2.369       .  S
O1730      H1755   0.965       .  S
C1731      C2061   1.502       .  S
C1732      C2041   1.495       .  S
C1733      C2048   1.468       .  S
O1734      H1770   0.990       .  S
O1735      C1737   1.280       .  A
O1736      C1737   1.289       .  A
C1737      C2028   1.478       .  S
Zr1739     O1744   2.462       .  S
Zr1739     O1742   2.436       .  S
O1740      C1745   1.285       .  A
O1741      H1758   0.990       .  S
O1741      H1773   0.990       .  S
O1742      H1759   0.990       .  S
O1743      H1763   0.991       .  S
O1743      H1772   0.989       .  S
O1744      C1745   1.289       .  A
C1745      C2111   1.500       .  S
O1746      H1765   0.990       .  S
O1747      H1761   0.991       .  S
O1747      H1768   0.990       .  S
O1748      C1752   1.289       .  A
O1749      C1752   1.280       .  A
O1750      H1760   0.990       .  S
C1752      C2018   1.487       .  S
C1775      H1776   1.090       .  S
C1775      C1780   1.556       .  S
C1777      C1783   1.543   1_455  S
C1777      C1784   1.574   1_455  S
C1779      C1782   1.391       .  D
C1779      C2011   1.544       .  S
C1780      C1783   1.372       .  D
C1780      C1998   1.518       .  S
C1781      C2171   1.529       .  S
C1782      C1978   1.513       .  S
C1783      C1988   1.525       .  S
C1784      C2058   1.552       .  S
Zr1785     O1787   2.435       .  S
Zr1785     O1788   2.467       .  S
Zr1785     O1791   2.459       .  S
Zr1785     O1793   2.375       .  S
Zr1785     O1794   2.381       .  S
Zr1785     O1795   2.407       .  S
Zr1785     O1796   2.415       .  S
Zr1785     O1786   2.436       .  S
O1786      H1842   0.990       .  S
O1786      H1850   0.991       .  S
O1787      C1807   1.284       .  A
O1788      C1809   1.291       .  A
O1789     Zr1799   2.401       .  S
O1789      C1808   1.278       .  A
O1790     Zr1798   2.374       .  S
O1790      C1809   1.272       .  A
O1791      C1808   1.290       .  A
O1792      C1807   1.293       .  A
O1793     Zr1798   2.375       .  S
O1794     Zr1799   2.386       .  S
O1794      H1829   0.965       .  S
O1795     Zr1798   2.394       .  S
O1795     Zr1815   2.413       .  S
O1795      H1832   0.966       .  S
O1796     Zr1799   2.391       .  S
O1796     Zr1815   2.415       .  S
Zr1797     O1816   2.428       .  S
Zr1797     O1824   2.478       .  S
Zr1797     O1812   2.480       .  S
Zr1797     O1803   2.413       .  S
Zr1797     O1804   2.415       .  S
Zr1797     O1805   2.372       .  S
Zr1797     O1806   2.377       .  S
Zr1797     O1822   2.436       .  S
Zr1798     O1817   2.436       .  S
Zr1799     O1801   2.434       .  S
Zr1800     O1803   2.414       .  S
Zr1800     O1804   2.413       .  S
Zr1800     O1826   2.435       .  S
Zr1800     O1827   2.435       .  S
Zr1800     O1802   2.435       .  S
O1801      H1838   0.990       .  S
O1802      H1833   0.990       .  S
O1802      H1847   0.989       .  S
O1804      H1830   0.966       .  S
O1806      H1831   0.966       .  S
C1807      C1971   1.512       .  S
C1808      C2088   1.491       .  S
C1809      C2101   1.464       .  S
O1810      H1846   0.990       .  S
O1811      C1813   1.274       .  A
O1812      C1813   1.296       .  A
C1813      C2008   1.485       .  S
O1814     Zr1815   2.438       .  S
O1814      H1843   0.990       .  S
Zr1815     O1818   2.437       .  S
Zr1815     O1819   2.438       .  S
O1816      C1821   1.284       .  A
O1817      H1834   0.991       .  S
O1817      H1849   0.988       .  S
O1818      H1835   0.991       .  S
O1819      H1839   0.990       .  S
O1819      H1848   0.990       .  S
O1820      C1821   1.292       .  A
C1821      C1958   1.495       .  S
O1822      H1841   0.990       .  S
O1822      H1845   0.990       .  S
O1823      H1837   0.990   1_565  S
O1823      H1844   0.989   1_565  S
O1824      C1828   1.293       .  A
O1825      C1828   1.280       .  A
O1826      H1836   0.990       .  S
O1827      H1840   0.990       .  S
C1828      C2001   1.514       .  S
C1851      H1852   1.082       .  S
C1851      C1857   1.560       .  S
C1851      C1856   1.549       .  S
C1851      C1855   1.562       .  S
C1853      H1854   1.085       .  S
C1853      C1859   1.561       .  S
C1853      C1858   1.534       .  S
C1853      C1860   1.569       .  S
C1855      C1858   1.369       .  D
C1855      C2051   1.511       .  S
C1856      C1859   1.395       .  D
C1856      C2038   1.524       .  S
C1857      C1860   1.414       .  D
C1857      C1948   1.560       .  S
C1858      C2151   1.510       .  S
C1859      C2158   1.540       .  S
C1860      C1961   1.541       .  S
Zr1861     O1863   2.423       .  S
Zr1861     O1864   2.453       .  S
Zr1861     O1867   2.478       .  S
Zr1861     O1869   2.385       .  S
Zr1861     O1870   2.374       .  S
Zr1861     O1871   2.411       .  S
Zr1861     O1872   2.405       .  S
Zr1861     O1862   2.435       .  S
O1862      H1918   0.990       .  S
O1862      H1926   0.991       .  S
O1863      C1883   1.281       .  A
O1864      C1885   1.289       .  A
O1865     Zr1875   2.393       .  S
O1865      C1884   1.276       .  A
O1866     Zr1874   2.395       .  S
O1866      C1885   1.278       .  A
O1867      C1884   1.294       .  A
O1868     Zr1876   2.480       .  S
O1868      C1883   1.294       .  A
O1869     Zr1874   2.390       .  S
O1869     Zr1876   2.368       .  S
O1870     Zr1875   2.380       .  S
O1870     Zr1876   2.348       .  S
O1870      H1905   0.963       .  S
O1871     Zr1874   2.394       .  S
O1871     Zr1891   2.400       .  S
O1871      H1908   0.965       .  S
O1872     Zr1875   2.393       .  S
O1872     Zr1891   2.409       .  S
Zr1873     O1892   2.425       .  S
Zr1873     O1900   2.463       .  S
Zr1873     O1888   2.453       .  S
Zr1873     O1879   2.408       .  S
Zr1873     O1880   2.411       .  S
Zr1873     O1881   2.379       .  S
Zr1873     O1882   2.378       .  S
Zr1873     O1898   2.437       .  S
Zr1874     O1887   2.413       .  S
Zr1874     O1880   2.392       .  S
Zr1874     O1881   2.377       .  S
Zr1874     O1893   2.437       .  S
Zr1874     O1886   2.434       .  S
Zr1875     O1901   2.410       .  S
Zr1875     O1879   2.390       .  S
Zr1875     O1882   2.372       .  S
Zr1875     O1877   2.433       .  S
Zr1875     O1899   2.438       .  S
Zr1876     O1879   2.416       .  S
Zr1876     O1880   2.406       .  S
Zr1876     O1902   2.436       .  S
Zr1876     O1903   2.436       .  S
Zr1876     O1878   2.435       .  S
O1877      H1914   0.990       .  S
O1878      H1909   0.991       .  S
O1878      H1923   0.989       .  S
O1880      H1906   0.967       .  S
O1881     Zr1891   2.375       .  S
O1882     Zr1891   2.364       .  S
O1882      H1907   0.964       .  S
C1883      C1951   1.512       .  S
C1884      C1981   1.472       .  S
C1885      C1991   1.465       .  S
O1886      H1922   0.990       .  S
O1887      C1889   1.281       .  A
O1888      C1889   1.289       .  A
C1889      C2081   1.485       .  S
O1890     Zr1891   2.439       .  S
O1890      H1919   0.990       .  S
Zr1891     O1896   2.449       .  S
Zr1891     O1894   2.437       .  S
Zr1891     O1895   2.438       .  S
O1892      C1897   1.283       .  A
O1893      H1910   0.990       .  S
O1893      H1925   0.990       .  S
O1894      H1911   0.990       .  S
O1895      H1915   0.990       .  S
O1895      H1924   0.990       .  S
O1896      C1897   1.286       .  A
C1897      C1938   1.476       .  S
O1898      H1917   0.990       .  S
O1898      H1921   0.990       .  S
O1899      H1913   0.990       .  S
O1899      H1920   0.990       .  S
O1900      C1904   1.290       .  A
O1901      C1904   1.281       .  A
O1902      H1912   0.990       .  S
O1903      H1916   0.990       .  S
C1904      C2071   1.491       .  S
C1927      H1928   1.104       .  S
C1927      C1933   1.554       .  S
C1927      C1932   1.539       .  S
C1927      C1931   1.556       .  S
C1929      H1930   1.106       .  S
C1929      C1935   1.557       .  S
C1929      C1934   1.558       .  S
C1929      C1936   1.567       .  S
C1931      C1934   1.390       .  D
C1931      C2031   1.529       .  S
C1932      C1935   1.378       .  D
C1932      C2021   1.509       .  S
C1933      C1936   1.395       .  D
C1933      C1941   1.521       .  S
C1934      C2121   1.524       .  S
C1935      C2128   1.522       .  S
C1936      C1968   1.539       .  S
C1937      C1938   1.399       .  A
C1937      C1942   1.413       .  A
C1937     Br1944   1.930       .  S
C1938      C1939   1.393       .  A
C1939      C1940   1.408       .  A
C1939     Br1946   1.929       .  S
C1940      C1941   1.417       .  A
C1940     Br1945   1.906       .  S
C1941      C1942   1.429       .  A
C1942     Br1943   1.910       .  S
C1947      C1948   1.409       .  A
C1947      C1952   1.408       .  A
C1947     Br1954   1.895       .  S
C1948      C1949   1.445       .  A
C1949      C1950   1.427       .  A
C1949     Br1956   1.937       .  S
C1950      C1951   1.412       .  A
C1950     Br1955   1.936       .  S
C1951      C1952   1.413       .  A
C1952     Br1953   1.931       .  S
C1957      C1958   1.401       .  A
C1957      C1962   1.417       .  A
C1957     Br1964   1.935       .  S
C1958      C1959   1.402       .  A
C1959      C1960   1.415       .  A
C1959     Br1966   1.919       .  S
C1960      C1961   1.418       .  A
C1960     Br1965   1.909       .  S
C1961      C1962   1.433       .  A
C1962     Br1963   1.907       .  S
C1967      C1968   1.422       .  A
C1967      C1972   1.416       .  A
C1967     Br1974   1.920       .  S
C1968      C1969   1.429       .  A
C1969      C1970   1.421       .  A
C1969     Br1976   1.919       .  S
C1970      C1971   1.410       .  A
C1971      C1972   1.415       .  A
C1972     Br1973   1.928       .  S
C1977      C1978   1.418       .  A
C1977      C1982   1.404       .  A
C1977     Br1984   1.912       .  S
C1978      C1979   1.421       .  A
C1979      C1980   1.412       .  A
C1979     Br1986   1.917       .  S
C1980      C1981   1.404       .  A
C1980     Br1985   1.932       .  S
C1981      C1982   1.404       .  A
C1982     Br1983   1.935       .  S
C1987      C1988   1.426       .  A
C1987      C1992   1.404       .  A
C1987     Br1994   1.913       .  S
C1988      C1989   1.427       .  A
C1989      C1990   1.412       .  A
C1989     Br1996   1.915       .  S
C1990      C1991   1.398       .  A
C1990     Br1995   1.932       .  S
C1991      C1992   1.399       .  A
C1992     Br1993   1.940       .  S
C1997      C1998   1.412       .  A
C1997      C2002   1.414       .  A
C1997     Br2004   1.932       .  S
C1998      C1999   1.418       .  A
C1999      C2000   1.411       .  A
C1999     Br2006   1.921       .  S
C2000      C2001   1.415       .  A
C2000     Br2005   1.937       .  S
C2001      C2002   1.427       .  A
C2002     Br2003   1.933       .  S
C2007      C2008   1.397       .  A
C2007      C2012   1.388       .  A
C2007     Br2014   1.924       .  S
C2008      C2009   1.425       .  A
C2009      C2010   1.424       .  A
C2009     Br2016   1.929       .  S
C2010      C2011   1.429       .  A
C2010     Br2015   1.932       .  S
C2011      C2012   1.406       .  A
C2012     Br2013   1.892       .  S
C2017      C2018   1.410       .  A
C2017      C2022   1.404       .  A
C2017     Br2024   1.931   1_556  S
C2018      C2019   1.410       .  A
C2019      C2020   1.409       .  A
C2019     Br2026   1.928       .  S
C2020      C2021   1.415       .  A
C2020     Br2025   1.914       .  S
C2021      C2022   1.415       .  A
C2022     Br2023   1.924       .  S
C2027      C2028   1.405       .  A
C2027      C2032   1.407       .  A
C2027     Br2034   1.944       .  S
C2028      C2029   1.403       .  A
C2029      C2030   1.414       .  A
C2029     Br2036   1.928   1_556  S
C2030      C2031   1.425       .  A
C2030     Br2035   1.924       .  S
C2031      C2032   1.425       .  A
C2032     Br2033   1.914       .  S
C2037      C2038   1.413       .  A
C2037      C2042   1.406       .  A
C2037     Br2044   1.895       .  S
C2038      C2039   1.420       .  A
C2039      C2040   1.415       .  A
C2039     Br2046   1.926       .  S
C2040      C2041   1.419       .  A
C2040     Br2045   1.936   1_554  S
C2041      C2042   1.409       .  A
C2042     Br2043   1.935       .  S
C2047      C2048   1.402       .  A
C2047      C2052   1.402       .  A
C2047     Br2054   1.936       .  S
C2048      C2049   1.401       .  A
C2049      C2050   1.412       .  A
C2049     Br2056   1.933   1_554  S
C2050      C2051   1.425       .  A
C2050     Br2055   1.918       .  S
C2051      C2052   1.415       .  A
C2052     Br2053   1.910       .  S
C2057      C2062   1.412       .  A
C2057     Br2064   1.943       .  S
C2058      C2059   1.420       .  A
C2059      C2060   1.414       .  A
C2059     Br2066   1.923       .  S
C2060      C2061   1.412   1_655  A
C2060     Br2065   1.927       .  S
C2062     Br2063   1.938       .  S
C2067      C2068   1.407       .  A
C2067      C2072   1.395       .  A
C2067     Br2074   1.925       .  S
C2068      C2069   1.420       .  A
C2069      C2070   1.414       .  A
C2069     Br2076   1.932       .  S
C2070      C2071   1.424       .  A
C2070     Br2075   1.930       .  S
C2071      C2072   1.410       .  A
C2072     Br2073   1.923       .  S
C2077      C2078   1.401       .  A
C2077      C2082   1.398       .  A
C2077     Br2084   1.916       .  S
C2078      C2079   1.417       .  A
C2079      C2080   1.416       .  A
C2079     Br2086   1.905       .  S
C2080      C2081   1.409       .  A
C2080     Br2085   1.929       .  S
C2081      C2082   1.397       .  A
C2082     Br2083   1.906       .  S
C2087      C2088   1.411       .  A
C2087      C2092   1.405       .  A
C2087     Br2094   1.927       .  S
C2088      C2089   1.416       .  A
C2089      C2090   1.407       .  A
C2089     Br2096   1.932       .  S
C2090      C2091   1.412       .  A
C2090     Br2095   1.926       .  S
C2091      C2092   1.412       .  A
C2092     Br2093   1.918       .  S
C2097      C2098   1.418       .  A
C2097      C2102   1.411       .  A
C2097     Br2104   1.921       .  S
C2098      C2099   1.416       .  A
C2099      C2100   1.402       .  A
C2099     Br2106   1.897       .  S
C2100      C2101   1.401       .  A
C2100     Br2105   1.942       .  S
C2101      C2102   1.405       .  A
C2102     Br2103   1.929       .  S
C2107      C2108   1.418   1_655  A
C2107      C2112   1.415       .  A
C2107     Br2114   1.918       .  S
C2109      C2110   1.416       .  A
C2109     Br2116   1.924       .  S
C2110     Br2115   1.931       .  S
C2111      C2112   1.409       .  A
C2112     Br2113   1.920       .  S
C2117      C2118   1.419       .  A
C2117      C2122   1.410       .  A
C2117     Br2124   1.938   1_556  S
C2118      C2119   1.415       .  A
C2119      C2120   1.414       .  A
C2119     Br2126   1.934       .  S
C2120      C2121   1.417       .  A
C2120     Br2125   1.907       .  S
C2121      C2122   1.417       .  A
C2122     Br2123   1.922       .  S
C2127      C2128   1.425       .  A
C2127      C2132   1.410       .  A
C2127     Br2134   1.924       .  S
C2128      C2129   1.422       .  A
C2129      C2130   1.411       .  A
C2129     Br2136   1.927       .  S
C2130      C2131   1.410       .  A
C2130     Br2135   1.935       .  S
C2131      C2132   1.401       .  A
C2132     Br2133   1.932   1_556  S
C2137      C2138   1.408       .  A
C2137      C2142   1.413       .  A
C2137     Br2144   1.928       .  S
C2139      C2140   1.421       .  A
C2139     Br2146   1.937       .  S
C2140     Br2145   1.921       .  S
C2141      C2142   1.423       .  A
C2142     Br2143   1.910       .  S
C2147      C2148   1.409       .  A
C2147      C2152   1.405       .  A
C2147     Br2154   1.917       .  S
C2148      C2149   1.411       .  A
C2149      C2150   1.410       .  A
C2149     Br2156   1.932   1_554  S
C2150      C2151   1.414       .  A
C2150     Br2155   1.915       .  S
C2151      C2152   1.404       .  A
C2152     Br2153   1.905       .  S
C2157      C2158   1.428       .  A
C2157      C2162   1.402       .  A
C2157     Br2164   1.938       .  S
C2158      C2159   1.426       .  A
C2159      C2160   1.409       .  A
C2159     Br2166   1.924       .  S
C2160      C2161   1.399       .  A
C2160     Br2165   1.929   1_554  S
C2161      C2162   1.406       .  A
C2162     Br2163   1.941       .  S
C2167      C2172   1.418       .  A
C2167     Br2174   1.933       .  S
C2168      C2169   1.409       .  A
C2169      C2170   1.412       .  A
C2169     Br2176   1.921       .  S
C2170      C2171   1.413       .  A
C2170     Br2175   1.906       .  S
C2172     Br2173   1.921       .  S
