geometry optimzed in LAMMPS
_audit_creation_date              2020-11-30 
_audit_creation_method            'lammps2cif' 
_symmetry_space_group_name_H-M    'P1' 
_symmetry_Int_Tables_number       1 
_symmetry_cell_setting            triclinic 
loop_ 
_symmetry_equiv_pos_as_xyz 
  x,y,z 
_cell_length_a                    41.12468325 
_cell_length_b                    40.99920631237453 
_cell_length_c                    37.71891618781954 
_cell_angle_alpha                 90.07120646051044 
_cell_angle_beta                  90.22979106135172 
_cell_angle_gamma                 89.68140594023924 
loop_ 
_atom_site_label 
_atom_site_type_symbol 
_atom_site_fract_x 
_atom_site_fract_y 
_atom_site_fract_z 
_atom_site_charge 
C1          C  0.34270560  0.00834945  0.40814025     0.81500
N2          N  0.37288048  0.00661921  0.42347736    -0.76800
C3          C  0.39637931  0.98699262  0.40889383     0.84000
N4          N  0.39349471  0.47591271  0.37926668    -0.76700
C5          C  0.36385704  0.47769353  0.36343856     0.84100
N6          N  0.33675149  0.99072119  0.37828617    -0.78400
O7          O  0.31549254  0.32075646  0.15478265    -0.73100
O8          O  0.31647863  0.38934584  0.22599497    -0.73100
O9          O  0.31561737  0.38600436  0.15369369    -0.73200
O10         O  0.31356239  0.32389887  0.22716502    -0.73200
O11         O  0.36759745  0.32264229  0.23079599    -0.73200
O12         O  0.36983331  0.38422898  0.15233719    -0.73100
O13         O  0.37055240  0.38806920  0.22461967    -0.73100
O14         O  0.36945735  0.31876350  0.15818324    -0.73200
Ni15       Ni  0.31339624  0.35503605  0.19042803     1.25400
Ni16       Ni  0.37132565  0.35333090  0.19152495     1.25400
C17         C  0.34293042  0.30920129  0.14402406     0.89100
C18         C  0.34420085  0.39961119  0.23733717     0.89000
C19         C  0.34242804  0.39425292  0.13966351     0.89000
C20         C  0.33949362  0.31421974  0.24256378     0.89200
C21         C  0.32122448  0.18180012  0.39413931     0.81500
N22         N  0.33015700  0.20395259  0.36947720    -0.76800
C23         C  0.31165516  0.23067697  0.36291061     0.84000
N24         N  0.28362212  0.23485283  0.38159097    -0.76700
C25         C  0.27404860  0.21259317  0.40619342     0.84100
N26         N  0.29305414  0.18590049  0.41240148    -0.78400
C27         C  0.34158800  0.19757359  0.97037653     0.81500
N28         N  0.33654684  0.21454164  0.00092832    -0.76800
C29         C  0.35999507  0.23350301  0.01530158     0.84000
N30         N  0.38908780  0.23573664  0.99869092    -0.76700
C31         C  0.39491950  0.21912085  0.96818284     0.84100
N32         N  0.37114512  0.19972095  0.95398355    -0.78400
C33         C  0.31987673  0.02430220  0.98524106     0.81500
N34         N  0.29167332  0.01978455  0.96702107    -0.76800
C35         C  0.27306780  0.99310822  0.97363688     0.84000
N36         N  0.28192167  0.47295059  0.00397590    -0.76700
C37         C  0.31008796  0.47815908  0.02231837     0.84100
N38         N  0.32931955  0.00243412  0.01014130    -0.78400
C39         C  0.24004907  0.48919819  0.95998756     0.03600
C40         C  0.21866409  0.01381273  0.95042761     0.03600
C41         C  0.18814220  0.00669312  0.93516856    -0.16900
C42         C  0.17800073  0.47580514  0.92941867     0.03600
C43         C  0.20143378  0.45037612  0.93276759     0.03600
C44         C  0.23180498  0.45742797  0.94864362    -0.16900
H45         H  0.24965576  0.43800273  0.95134229     0.05600
H46         H  0.17027482  0.02615366  0.93287685     0.05600
C47         C  0.09836214  0.44113484  0.89899457     0.81500
N48         N  0.12687902  0.44463334  0.91716132    -0.76800
C49         C  0.14580368  0.47146020  0.91155535     0.84000
N50         N  0.13558483  0.49457477  0.88809128    -0.76700
C51         C  0.10706310  0.49138348  0.87015746     0.84500
N52         N  0.08891454  0.46459314  0.87583543    -0.78400
C53         C  0.06967944  0.27238465  0.89625906     0.81500
N54         N  0.07487965  0.25239227  0.86819014    -0.76800
C55         C  0.05404160  0.22813175  0.86014991     0.84000
N56         N  0.02717541  0.22389948  0.88044906    -0.76700
C57         C  0.02160625  0.24336243  0.90907261     0.84100
N58         N  0.04305856  0.26768079  0.91705351    -0.78400
O59         O  0.10296453  0.07150776  0.65364277    -0.73100
O60         O  0.10012324  0.14298827  0.72098736    -0.73100
O61         O  0.10447876  0.07816510  0.72563943    -0.73200
O62         O  0.10166268  0.13624260  0.64867202    -0.73200
O63         O  0.04759590  0.13298903  0.64573685    -0.73200
O64         O  0.05044680  0.07736229  0.72913860    -0.73100
O65         O  0.04614574  0.14184520  0.71782682    -0.73100
O66         O  0.04907980  0.06866297  0.65728972    -0.73200
Ni67       Ni  0.10422415  0.10735708  0.68726368     1.25400
Ni68       Ni  0.04633725  0.10518987  0.68751356     1.25400
C69         C  0.07574893  0.05911203  0.64357076     0.89100
C70         C  0.07209141  0.15316008  0.73157262     0.89000
C71         C  0.07867315  0.06958487  0.74154937     0.89000
C72         C  0.07496048  0.14220063  0.63274475     0.89200
C73         C  0.07126606  0.43438612  0.48262110     0.81500
N74         N  0.07759057  0.45428691  0.51052937    -0.76800
C75         C  0.05690314  0.47860154  0.51940112     0.84000
N76         N  0.02920098  0.48300306  0.50021490    -0.76700
C77         C  0.02263813  0.46361044  0.47178379     0.84100
N78         N  0.04377288  0.43913543  0.46299667    -0.78400
C79         C  0.09937386  0.26732394  0.47947165     0.81500
N80         N  0.08827255  0.24375607  0.50110464    -0.76800
C81         C  0.10614360  0.21722589  0.50921902     0.84000
N82         N  0.13620081  0.21392337  0.49456616    -0.76700
C83         C  0.14806406  0.23707998  0.47208631     0.84100
N84         N  0.12942659  0.26405162  0.46465733    -0.78400
C85         C  0.45268387  0.20046163  0.95521033     0.03600
C86         C  0.42705106  0.22342246  0.95094238     0.03600
C87         C  0.43372810  0.25394437  0.93535798    -0.16900
C88         C  0.46506996  0.26221685  0.92328261     0.03600
C89         C  0.49046513  0.23874679  0.92650694     0.03600
C90         C  0.48388115  0.20841170  0.94252183    -0.16900
H91         H  0.00319816  0.19227503  0.94823451     0.05600
H92         H  0.41428209  0.27182543  0.93327405     0.05600
O93         O  0.29945865  0.33568616  0.72904305    -0.73100
O94         O  0.36865761  0.33662343  0.65911055    -0.73100
O95         O  0.36414154  0.33804707  0.73156949    -0.73200
O96         O  0.30361573  0.33107479  0.65683585    -0.73200
O97         O  0.30084034  0.38488152  0.65063367    -0.73200
O98         O  0.35965410  0.39230488  0.73140911    -0.73100
O99         O  0.36546254  0.39076491  0.65927702    -0.73100
O100        O  0.29506355  0.38941355  0.72260435    -0.73200
Ni101      Ni  0.33409394  0.33341485  0.69414395     1.25400
Ni102      Ni  0.33013460  0.39128236  0.69082117     1.25400
C103        C  0.28692486  0.36326326  0.73832035     0.89100
C104        C  0.37792890  0.36453075  0.64723977     0.89000
C105        C  0.37038169  0.36564853  0.74536544     0.89000
C106        C  0.29306827  0.35599541  0.64018599     0.89200
C107        C  0.16916699  0.37000118  0.90137948     0.81500
N108        N  0.17289749  0.39760918  0.92122729    -0.76800
C109        C  0.19786116  0.41852294  0.91410845     0.84000
N110        N  0.21864478  0.41154177  0.88708972    -0.76700
C111        C  0.21524762  0.38374098  0.86782387     0.84100
N112        N  0.19056470  0.36338746  0.87513448    -0.78400
C113        C  0.00078970  0.34220837  0.89423098     0.81500
N114        N  0.99622572  0.31402671  0.91260626    -0.76800
C115        C  0.46984091  0.29461758  0.90580038     0.84000
N116        N  0.44753829  0.30568374  0.88161769    -0.76700
C117        C  0.45222209  0.33446413  0.86430446     0.84100
N118        N  0.47926625  0.35182011  0.87141516    -0.78400
C119        C  0.17237636  0.33896345  0.47817381     0.81500
N120        N  0.19404274  0.34742619  0.50372075    -0.76800
C121        C  0.21924501  0.32766244  0.51227094     0.84000
N122        N  0.22253697  0.29864194  0.49513161    -0.76700
C123        C  0.20105490  0.28964776  0.46941106     0.84100
N124        N  0.17590244  0.31001384  0.46086677    -0.78400
C125        C  0.99954364  0.36483403  0.48604447     0.81500
N126        N  0.99539595  0.39257164  0.46665009    -0.76800
C127        C  0.47384736  0.41863918  0.47632578     0.84000
N128        N  0.45380380  0.41185354  0.50391585    -0.76700
C129        C  0.45777863  0.38405538  0.52308501     0.84100
N130        N  0.48215510  0.36322368  0.51465573    -0.78400
C131        C  0.41708803  0.12171793  0.98526013     0.81500
N132        N  0.43947013  0.11183274  0.00941850    -0.76800
C133        C  0.46642676  0.12967260  0.01602625     0.84000
N134        N  0.47059837  0.15819238  0.99800672    -0.76700
C135        C  0.44806653  0.16874310  0.97388874     0.84100
N136        N  0.42125766  0.15022673  0.96753068    -0.78400
C137        C  0.24459454  0.09994098  0.96923428     0.81500
N138        N  0.22782683  0.10526522  0.99966553    -0.76800
C139        C  0.20904115  0.08197315  0.01419563     0.84000
N140        N  0.20671420  0.05253658  0.99795426    -0.76700
C141        C  0.22305986  0.04635499  0.96739255     0.84100
N142        N  0.24239554  0.07008632  0.95301235    -0.78400
O143        O  0.05485566  0.12570624  0.22414912    -0.73100
O144        O  0.12375925  0.12871089  0.15380550    -0.73100
O145        O  0.05869861  0.12773248  0.15168030    -0.73200
O146        O  0.12015874  0.12959626  0.22620624    -0.73200
O147        O  0.12207164  0.07541964  0.22831614    -0.73200
O148        O  0.06143155  0.07344785  0.14889903    -0.73100
O149        O  0.12651463  0.07454205  0.15614453    -0.73100
O150        O  0.05714767  0.07161081  0.22100728    -0.73200
Ni151      Ni  0.08926505  0.12988136  0.18903452     1.25400
Ni152      Ni  0.09185931  0.07183095  0.18861110     1.25400
C153        C  0.04518665  0.09745524  0.23457645     0.89100
C154        C  0.13579641  0.10144316  0.14279905     0.89000
C155        C  0.05112922  0.10096471  0.13668362     0.89000
C156        C  0.13072252  0.10344535  0.24051485     0.89200
C157        C  0.41904031  0.08419389  0.39017901     0.81500
N158        N  0.42376033  0.05650029  0.40928181    -0.76800
C159        C  0.44918432  0.03638974  0.40163653     0.84000
N160        N  0.46958575  0.04413831  0.37467504    -0.76700
C161        C  0.46474904  0.07171184  0.35526841     0.84100
N162        N  0.43935586  0.09156991  0.36315901    -0.78400
C163        C  0.24440735  0.10580421  0.41170200     0.81500
N164        N  0.24361278  0.13600626  0.42727479    -0.76800
C165        C  0.22367560  0.15983274  0.41365447     0.84000
N166        N  0.20517515  0.15338190  0.38465210    -0.76700
C167        C  0.20608623  0.12369933  0.36888876     0.84100
N168        N  0.22561466  0.10023557  0.38258272    -0.78400
C169        C  0.45415320  0.00556138  0.42136175     0.03600
C170        C  0.43158862  0.48764407  0.42725882     0.03600
C171        C  0.43820944  0.45768896  0.44397392    -0.16900
C172        C  0.46945800  0.44978925  0.45675190     0.03600
C173        C  0.49473765  0.47290214  0.45327324     0.03600
C174        C  0.48547598  0.99813928  0.43441922    -0.16900
H175        H  0.00425785  0.01706786  0.43316986     0.05600
H176        H  0.41881506  0.44006983  0.44665345     0.05600
C177        C  0.24291613  0.21766903  0.42556630     0.03600
C178        C  0.21998304  0.19243545  0.43036742     0.03600
C179        C  0.18943633  0.20012914  0.44511732    -0.16900
C180        C  0.18099951  0.23203338  0.45598011     0.03600
C181        C  0.20473165  0.25697061  0.45279614     0.03600
C182        C  0.23508576  0.24934861  0.43747239    -0.16900
H183        H  0.25302599  0.26848874  0.43488698     0.05600
H184        H  0.17149026  0.18093969  0.44720593     0.05600
C185        C  0.51157869  0.11643262  0.28329997     0.24900
C186        C  0.02143192  0.09313133  0.26393520    -0.23200
C187        C  0.01000335  0.06143383  0.27174297     0.19800
C188        C  0.99219053  0.05540898  0.30232262     0.24900
C189        C  0.48494905  0.07844421  0.32370653    -0.23100
C190        C  0.49269911  0.11057048  0.31360778     0.19800
F191        F  0.48288443  0.13627238  0.33369995    -0.13100
F192        F  0.51962387  0.14760827  0.27523645    -0.15500
F193        F  0.98203214  0.02451009  0.30877736    -0.15500
F194        F  0.01627092  0.03573729  0.25000515    -0.13100
C195        C  0.16662622  0.13746428  0.27948256     0.24900
C196        C  0.15217719  0.10695299  0.27218659    -0.23200
C197        C  0.15617718  0.08162232  0.29703623     0.19800
C198        C  0.17383059  0.08687133  0.32849078     0.24900
C199        C  0.18747150  0.11762670  0.33585449    -0.23100
C200        C  0.18377553  0.14272160  0.31090348     0.19800
F201        F  0.19734443  0.17242737  0.31653439    -0.13100
F202        F  0.16417328  0.16264097  0.25623266    -0.15500
F203        F  0.17646159  0.06224396  0.35237032    -0.15500
F204        F  0.14196802  0.05221511  0.29168042    -0.13100
C205        C  0.17660766  0.11844309  0.05458544     0.24900
C206        C  0.19235658  0.08840700  0.04818119    -0.23200
C207        C  0.19264872  0.06466480  0.07486382     0.19800
C208        C  0.17648963  0.07020347  0.10680442     0.24900
C209        C  0.15889832  0.09945102  0.11261176    -0.23100
C210        C  0.15983211  0.12386007  0.08642869     0.19800
F211        F  0.14300972  0.15216702  0.09064431    -0.13100
F212        F  0.17595734  0.14190750  0.02922662    -0.15500
F213        F  0.17745828  0.04635661  0.13176336    -0.15500
F214        F  0.20880252  0.03601125  0.07012115    -0.13100
C215        C  0.00179847  0.08757026  0.10006636     0.24900
C216        C  0.03153227  0.10362122  0.10394538    -0.23200
C217        C  0.04065456  0.12686537  0.07848706     0.19800
C218        C  0.01966951  0.13546266  0.05079146     0.24900
C219        C  0.48999928  0.11873267  0.04398119    -0.23100
C220        C  0.48232976  0.09310163  0.06779620     0.19800
F221        F  0.45391082  0.07659470  0.06495097    -0.13100
F222        F  0.49441529  0.06182199  0.11961292    -0.15500
F223        F  0.02957838  0.15837262  0.02729437    -0.15500
F224        F  0.06982925  0.14207869  0.08109716    -0.13100
C225        C  0.40969732  0.34149394  0.59545857     0.24900
C226        C  0.40166529  0.36787910  0.61775701    -0.23200
C227        C  0.41349285  0.39920684  0.60900712     0.19800
C228        C  0.43110167  0.40428000  0.57803994     0.24900
C229        C  0.43826824  0.37820095  0.55530160    -0.23100
C230        C  0.42811714  0.34658609  0.56467253     0.19800
F231        F  0.43496316  0.32078910  0.54331972    -0.13100
F232        F  0.39876508  0.31103457  0.60260176    -0.15500
F233        F  0.44174145  0.43483883  0.57070321    -0.15500
F234        F  0.40772986  0.42543615  0.63015844    -0.13100
C235        C  0.42081200  0.37614946  0.78041460     0.24900
C236        C  0.38885759  0.36484708  0.77883577    -0.23200
C237        C  0.37687868  0.34567814  0.80680820     0.19800
C238        C  0.39706406  0.33642366  0.83504537     0.24900
C239        C  0.42975536  0.34617625  0.83589474    -0.23100
C240        C  0.44113691  0.36697080  0.80863588     0.19800
F241        F  0.47255975  0.37684828  0.80784183    -0.13100
F242        F  0.43312523  0.39386148  0.75325349    -0.15500
F243        F  0.38471104  0.31742215  0.86113304    -0.15500
F244        F  0.34581616  0.33460362  0.80584652    -0.13100
C245        C  0.25210025  0.39775627  0.77803795     0.24900
C246        C  0.26515613  0.36668397  0.76953000    -0.23200
C247        C  0.26102079  0.34103681  0.79386453     0.19800
C248        C  0.24525827  0.34666421  0.82623690     0.24900
C249        C  0.23407361  0.37811799  0.83520768    -0.23100
C250        C  0.23731223  0.40343389  0.81065102     0.19800
F251        F  0.22510265  0.43360368  0.81768354    -0.13100
F252        F  0.25387634  0.42313540  0.75501707    -0.15500
F253        F  0.24154499  0.32151381  0.84922184    -0.15500
F254        F  0.27292555  0.31076803  0.78689999    -0.13100
C255        C  0.26357772  0.37511660  0.58456858     0.24900
C256        C  0.27296880  0.34987915  0.60782460    -0.23200
C257        C  0.26480341  0.31741358  0.59862221     0.19800
C258        C  0.24853772  0.31039569  0.56709541     0.24900
C259        C  0.23930620  0.33545234  0.54386718    -0.23100
C260        C  0.24669054  0.36797218  0.55303090     0.19800
F261        F  0.23793852  0.39285272  0.53120404    -0.13100
F262        F  0.27091989  0.40662798  0.59203662    -0.15500
F263        F  0.24062403  0.27890250  0.56013055    -0.15500
F264        F  0.27231332  0.29191822  0.62016679    -0.13100
C265        C  0.04362168  0.33195610  0.51349880     0.24900
C266        C  0.02898643  0.34407526  0.48246265    -0.23200
C267        C  0.04174023  0.33457256  0.44931616     0.19800
C268        C  0.06708721  0.31124833  0.44749872     0.24900
C269        C  0.08013682  0.29786915  0.47882903    -0.23100
C270        C  0.06898403  0.30956113  0.51167504     0.19800
F271        F  0.08185649  0.29801330  0.54247231    -0.13100
F272        F  0.03306587  0.34146347  0.54601642    -0.15500
F273        F  0.07706073  0.30004443  0.41544918    -0.15500
F274        F  0.52443577  0.34598098  0.41911534    -0.13100
C275        C  0.12562298  0.36464276  0.50752829     0.24900
C276        C  0.14213732  0.35821450  0.47581740    -0.23200
C277        C  0.13174326  0.37354110  0.44437388     0.19800
C278        C  0.10672809  0.39716495  0.44550952     0.24900
C279        C  0.09220838  0.40536368  0.47809484    -0.23100
C280        C  0.10094497  0.38782318  0.50864747     0.19800
F281        F  0.08610290  0.39386273  0.54011580    -0.13100
F282        F  0.13418477  0.34902901  0.53795292    -0.15500
F283        F  0.09852757  0.41366010  0.41558497    -0.15500
F284        F  0.14731518  0.36748998  0.41338182    -0.13100
C285        C  0.06800011  0.20462939  0.55979615     0.24900
C286        C  0.09421229  0.19504808  0.53753089    -0.23200
C287        C  0.11009417  0.16533457  0.54456273     0.19800
C288        C  0.10187251  0.14714711  0.57444225     0.24900
C289        C  0.07758867  0.15813105  0.59794303    -0.23100
C290        C  0.05986937  0.18626110  0.58970558     0.19800
F291        F  0.03642609  0.19733926  0.61199414    -0.13100
F292        F  0.05124712  0.23278072  0.55414054    -0.15500
F293        F  0.11855890  0.11913820  0.58120814    -0.15500
F294        F  0.13427097  0.15422362  0.52323239    -0.13100
C295        C  0.09895369  0.03220796  0.58897507     0.24900
C296        C  0.07354690  0.03563826  0.61365677    -0.23200
C297        C  0.04353153  0.02026943  0.60642238     0.19800
C298        C  0.03837470  0.00398975  0.57446884     0.24900
C299        C  0.06325956  0.00170157  0.54937697    -0.23100
C300        C  0.09390835  0.01503617  0.55725064     0.19800
F301        F  0.11863567  0.01235176  0.53366701    -0.13100
F302        F  0.12820300  0.04648768  0.59475356    -0.15500
F303        F  0.00914496  0.98969534  0.56843409    -0.15500
F304        F  0.01868492  0.02136679  0.63002729    -0.13100
C305        C  0.10384510  0.31133954  0.93293591     0.24900
C306        C  0.09099694  0.30121868  0.90006447    -0.23200
C307        C  0.10095146  0.31729298  0.86907465     0.19800
C308        C  0.12479706  0.34112558  0.87042877     0.24900
C309        C  0.13959115  0.34964907  0.90277988    -0.23100
C310        C  0.12817081  0.33546812  0.93428220     0.19800
F311        F  0.14193382  0.34337505  0.96586307    -0.13100
F312        F  0.09439994  0.29651915  0.96330359    -0.15500
F313        F  0.13401096  0.35550410  0.83963303    -0.15500
F314        F  0.08781448  0.30961941  0.83703142    -0.13100
C315        C  0.09042181  0.20017374  0.81621455     0.24900
C316        C  0.05895506  0.20937226  0.82709358    -0.23200
C317        C  0.03248207  0.20270268  0.80478150     0.19800
C318        C  0.03716347  0.18653431  0.77259893     0.24900
C319        C  0.06852889  0.17588209  0.76217038    -0.23100
C320        C  0.09516405  0.18339102  0.78422750     0.19800
F321        F  0.12569299  0.17353934  0.77561405    -0.13100
F322        F  0.11656254  0.20647860  0.83717469    -0.15500
F323        F  0.01058983  0.18088961  0.75203010    -0.15500
F324        F  0.00198193  0.21250398  0.81370573    -0.13100
C325        C  0.06739891  0.39887731  0.86692244     0.24900
C326        C  0.07907994  0.41071500  0.89951535    -0.23200
C327        C  0.06869355  0.39568702  0.93104269     0.19800
C328        C  0.04457409  0.37129081  0.92984182     0.24900
C329        C  0.03085689  0.36187792  0.89710607    -0.23100
C330        C  0.04379903  0.37482296  0.86574008     0.19800
F331        F  0.03296946  0.36467404  0.83352641    -0.13100
F332        F  0.07823306  0.41139472  0.83581440    -0.15500
F333        F  0.53299707  0.35877377  0.96183841    -0.15500
F334        F  0.08020866  0.40602082  0.96286673    -0.13100
C335        C  0.06674940  0.51282711  0.82488050     0.24900
C336        C  0.09878985  0.01227957  0.83479093    -0.23200
C337        C  0.11931241  0.03790787  0.82457724     0.19800
C338        C  0.11152931  0.05729402  0.79542005     0.24900
C339        C  0.08319300  0.05155122  0.77520092    -0.23100
C340        C  0.06152323  0.02747697  0.78641091     0.19800
F341        F  0.03373327  0.02174320  0.76793533    -0.13100
F342        F  0.04282619  0.49413536  0.83877769    -0.15500
F343        F  0.13225361  0.08167926  0.78668384    -0.15500
F344        F  0.14759868  0.04392472  0.84201819    -0.13100
C345        C  0.36419825  0.10141271  0.00676686     0.24900
C346        C  0.38799232  0.10170617  0.98022247    -0.23200
C347        C  0.38657098  0.07880431  0.95254180     0.19800
C348        C  0.36253487  0.05470602  0.95252129     0.24900
C349        C  0.33983163  0.05341966  0.98018511    -0.23100
C350        C  0.34024379  0.07739724  0.00674400     0.19800
F351        F  0.31853713  0.07634809  0.03374788    -0.13100
F352        F  0.36535932  0.12327917  0.03380096    -0.15500
F353        F  0.36266356  0.03143830  0.92687918    -0.15500
F354        F  0.40964547  0.07855778  0.92690358    -0.13100
C355        C  0.25888016  0.15898937  0.96710733     0.24900
C356        C  0.26636209  0.12675747  0.95685414    -0.23200
C357        C  0.29671276  0.12094556  0.94069546     0.19800
C358        C  0.32094001  0.14534238  0.94108222     0.24900
C359        C  0.31495682  0.17561378  0.95775003    -0.23100
C360        C  0.28277301  0.18297480  0.96759903     0.19800
F361        F  0.27467711  0.21313795  0.97972865    -0.13100
F362        F  0.22869787  0.16697869  0.97889077    -0.15500
F363        F  0.35054885  0.13874012  0.92705916    -0.15500
F364        F  0.30353921  0.09133505  0.92646126    -0.13100
C365        C  0.36766297  0.15373731  0.42351828     0.24900
C366        C  0.34184366  0.15297278  0.39907437    -0.23200
C367        C  0.33966979  0.12725602  0.37464316     0.19800
C368        C  0.36405819  0.10346194  0.37333188     0.24900
C369        C  0.39079093  0.10521003  0.39644932    -0.23100
C370        C  0.39207651  0.12984626  0.42225229     0.19800
F371        F  0.41797237  0.13192138  0.44456684    -0.13100
F372        F  0.37029892  0.17877224  0.44692989    -0.15500
F373        F  0.36244722  0.07956704  0.34843531    -0.15500
F374        F  0.31486461  0.12629525  0.35080496    -0.13100
C375        C  0.31941692  0.40279017  0.07988393     0.24900
C376        C  0.33992214  0.41397388  0.10719821    -0.23200
C377        C  0.35215926  0.44570842  0.10562689     0.19800
C378        C  0.34292115  0.46646233  0.07775601     0.24900
C379        C  0.32125348  0.45566259  0.05089886    -0.23100
C380        C  0.31019974  0.42330399  0.05204645     0.19800
F381        F  0.29009980  0.41146497  0.02651383    -0.13100
F382        F  0.30732767  0.37203478  0.08090313    -0.15500
F383        F  0.35384796  0.49765265  0.07829650    -0.15500
F384        F  0.37112942  0.45734073  0.13228191    -0.13100
C385        C  0.37540884  0.27107698  0.10554644     0.24900
C386        C  0.34526816  0.28614329  0.11344201    -0.23200
C387        C  0.31925001  0.28187132  0.08946648     0.19800
C388        C  0.32370040  0.26414987  0.05789790     0.24900
C389        C  0.35434157  0.25072340  0.04941433    -0.23100
C390        C  0.37988573  0.25391293  0.07392609     0.19800
F391        F  0.40939799  0.24015986  0.06744362    -0.13100
F392        F  0.40110910  0.27335984  0.12812227    -0.15500
F393        F  0.29841217  0.26152006  0.03485099    -0.15500
F394        F  0.28990174  0.29603853  0.09564035    -0.13100
C395        C  0.35720282  0.26982933  0.28538027     0.24900
C396        C  0.33526611  0.29443968  0.27517839    -0.23200
C397        C  0.30717711  0.29961129  0.29582986     0.19800
C398        C  0.30014895  0.27968408  0.32465889     0.24900
C399        C  0.32104037  0.25380185  0.33407556    -0.23100
C400        C  0.35019191  0.24962664  0.31447292     0.19800
F401        F  0.37178094  0.22563714  0.32280538    -0.13100
F402        F  0.38469042  0.26439357  0.26640279    -0.15500
F403        F  0.27224593  0.28560507  0.34273021    -0.15500
F404        F  0.28603898  0.32418937  0.28805402    -0.13100
C405        C  0.32241127  0.06087447  0.43720224     0.24900
C406        C  0.31622639  0.03040332  0.42118957    -0.23200
C407        C  0.28381558  0.02287406  0.41238007     0.19800
C408        C  0.25960690  0.04677154  0.41346564     0.24900
C409        C  0.26701331  0.07907925  0.42319622    -0.23100
C410        C  0.29786274  0.08513874  0.43822098     0.19800
F411        F  0.30492067  0.11495322  0.45169901    -0.13100
F412        F  0.35254230  0.06795712  0.44961682    -0.15500
F413        F  0.22913051  0.03857795  0.40281709    -0.15500
F414        F  0.27573046  0.99265654  0.40058290    -0.13100
C415        C  0.32169978  0.42818441  0.29140772     0.24900
C416        C  0.34699600  0.42364981  0.26683354    -0.23200
C417        C  0.37699553  0.43933729  0.27320178     0.19800
C418        C  0.38221425  0.45715074  0.30428585     0.24900
C419        C  0.35747901  0.46035325  0.32959667    -0.23100
C420        C  0.32684114  0.44650654  0.32237508     0.19800
F421        F  0.30230956  0.44915414  0.34619085    -0.13100
F422        F  0.29253817  0.41345776  0.28656031    -0.15500
F423        F  0.41161001  0.47135841  0.30954341    -0.15500
F424        F  0.40177481  0.43700068  0.24961581    -0.13100
C425        C  0.34529336  0.51169754  0.40992495     0.81500
N426        N  0.37527362  0.51005988  0.42555806    -0.76800
C427        C  0.39939860  0.49192327  0.41016090     0.84000
N428        N  0.38967287  0.96972655  0.37897987    -0.76700
C429        C  0.35987873  0.97155141  0.36352117     0.84100
N430        N  0.34005241  0.49546762  0.37899457    -0.78400
O431        O  0.30583292  0.82084322  0.15069781    -0.73100
O432        O  0.30860521  0.88794223  0.22371487    -0.73100
O433        O  0.30921287  0.88613545  0.15101275    -0.73200
O434        O  0.30248759  0.82276060  0.22286346    -0.73200
O435        O  0.35623354  0.81914152  0.22786673    -0.73200
O436        O  0.36327834  0.88148871  0.15066529    -0.73100
O437        O  0.36263803  0.88443622  0.22318466    -0.73100
O438        O  0.35955545  0.81624691  0.15574481    -0.73200
Ni439      Ni  0.30462612  0.85465195  0.18704287     1.25400
Ni440      Ni  0.36236666  0.85023000  0.18948447     1.25400
C441        C  0.33295910  0.80785257  0.14092432     0.89100
C442        C  0.33658472  0.89659407  0.23592558     0.89000
C443        C  0.33664816  0.89279312  0.13733027     0.89000
C444        C  0.32756624  0.81099924  0.23819609     0.89200
C445        C  0.31608487  0.67960591  0.39070799     0.81500
N446        N  0.32259390  0.70127543  0.36467009    -0.76800
C447        C  0.30278556  0.72714566  0.35881974     0.84000
N448        N  0.27588143  0.73117794  0.37924212    -0.76700
C449        C  0.26882573  0.70958407  0.40547977     0.84100
N450        N  0.28914790  0.68365728  0.41124589    -0.78400
C451        C  0.33961866  0.69768531  0.96635771     0.81500
N452        N  0.33229694  0.71401631  0.99676064    -0.76800
C453        C  0.35462091  0.73271925  0.01345772     0.84000
N454        N  0.38477065  0.73546433  0.99937657    -0.76700
C455        C  0.39283976  0.71952562  0.96908698     0.84100
N456        N  0.37024444  0.70025177  0.95253192    -0.78400
C457        C  0.31810496  0.52641281  0.98986447     0.81500
N458        N  0.28991798  0.52137054  0.97177854    -0.76800
C459        C  0.27157908  0.49454658  0.97877575     0.84000
N460        N  0.28313928  0.97111468  0.99848409    -0.76700
C461        C  0.31131604  0.97564976  0.01695961     0.84100
N462        N  0.32785106  0.50493279  0.01492481    -0.78400
C463        C  0.24157620  0.98819668  0.95481196     0.03600
C464        C  0.21751179  0.51491556  0.95431898     0.03600
C465        C  0.18670338  0.50765840  0.94003175    -0.16900
C466        C  0.17984277  0.97498623  0.92354643     0.03600
C467        C  0.20326948  0.94953638  0.92694889     0.03600
C468        C  0.23362330  0.95662640  0.94268206    -0.16900
H469        H  0.25153852  0.93723423  0.94520118     0.05600
H470        H  0.16907513  0.52728947  0.93726409     0.05600
C471        C  0.09973861  0.94046218  0.89496827     0.81500
N472        N  0.12838335  0.94430649  0.91273181    -0.76800
C473        C  0.14772952  0.97046247  0.90558476     0.84000
N474        N  0.13767136  0.99282770  0.88114108    -0.76700
C475        C  0.10893195  0.98932054  0.86355409     0.84500
N476        N  0.09048410  0.96299548  0.87066033    -0.78400
C477        C  0.06968491  0.77200380  0.89717526     0.81500
N478        N  0.07479883  0.75198492  0.86905519    -0.76800
C479        C  0.05374898  0.72786037  0.86104774     0.84000
N480        N  0.02689413  0.72385306  0.88135134    -0.76700
C481        C  0.02139451  0.74345059  0.90985381     0.84100
N482        N  0.04298398  0.76757879  0.91787714    -0.78400
O483        O  0.10189338  0.56914875  0.65525210    -0.73100
O484        O  0.09891221  0.64037029  0.72292761    -0.73100
O485        O  0.10442676  0.57558273  0.72729461    -0.73200
O486        O  0.09893290  0.63396140  0.65058408    -0.73200
O487        O  0.04486149  0.62981019  0.64916664    -0.73200
O488        O  0.05055922  0.57383522  0.73193368    -0.73100
O489        O  0.04490768  0.63814950  0.72128706    -0.73100
O490        O  0.04814089  0.56519868  0.65980980    -0.73200
Ni491      Ni  0.10294525  0.60491362  0.68898034     1.25400
Ni492      Ni  0.04514455  0.60162996  0.69057409     1.25400
C493        C  0.07484199  0.55613094  0.64564976     0.89100
C494        C  0.07096468  0.65006225  0.73423404     0.89000
C495        C  0.07908549  0.56674711  0.74394400     0.89000
C496        C  0.07170052  0.63981671  0.63567411     0.89200
C497        C  0.07231049  0.93639174  0.48297541     0.81500
N498        N  0.07860849  0.95777889  0.50950673    -0.76800
C499        C  0.05794530  0.98248790  0.51689961     0.84000
N500        N  0.03025389  0.98592365  0.49749736    -0.76700
C501        C  0.02367063  0.96514546  0.47027128     0.84100
N502        N  0.04483584  0.94021637  0.46300650    -0.78400
C503        C  0.09861871  0.76762586  0.48518845     0.81500
N504        N  0.08701072  0.74500607  0.50768761    -0.76800
C505        C  0.10355363  0.71731842  0.51478723     0.84000
N506        N  0.13291083  0.71229146  0.49889620    -0.76700
C507        C  0.14526859  0.73483415  0.47600244     0.84100
N508        N  0.12768942  0.76247019  0.46900244    -0.78400
C509        C  0.45138965  0.70160506  0.95870810     0.03600
C510        C  0.42593646  0.72468511  0.95442411     0.03600
C511        C  0.43334597  0.75576494  0.94075832    -0.16900
C512        C  0.46501918  0.76412857  0.92963487     0.03600
C513        C  0.48992407  0.74013543  0.93164787     0.03600
C514        C  0.48282142  0.70955437  0.94669705    -0.16900
H515        H  0.00303939  0.69011335  0.94449303     0.05600
H516        H  0.41402743  0.77379266  0.93873504     0.05600
O517        O  0.30111128  0.82646249  0.72884925    -0.73100
O518        O  0.36788247  0.82876257  0.65602010    -0.73100
O519        O  0.36608386  0.82831369  0.72874168    -0.73200
O520        O  0.30312002  0.82406358  0.65628432    -0.73200
O521        O  0.30210119  0.87818340  0.65157562    -0.73200
O522        O  0.36135231  0.88246056  0.73153752    -0.73100
O523        O  0.36634111  0.88284587  0.65942623    -0.73100
O524        O  0.29675425  0.88036391  0.72371197    -0.73200
Ni525      Ni  0.33467736  0.82490819  0.69252170     1.25400
Ni526      Ni  0.33152356  0.88290225  0.69155336     1.25400
C527        C  0.28855441  0.85385884  0.73872867     0.89100
C528        C  0.37714186  0.85693809  0.64491830     0.89000
C529        C  0.37227874  0.85532313  0.74398156     0.89000
C530        C  0.29419632  0.84977723  0.63994926     0.89200
C531        C  0.17041588  0.86772780  0.90119410     0.81500
N532        N  0.17412338  0.89666017  0.91863778    -0.76800
C533        C  0.19919561  0.91690582  0.90999042     0.84000
N534        N  0.22010236  0.90794592  0.88374780    -0.76700
C535        C  0.21670850  0.87884568  0.86684241     0.84100
N536        N  0.19184547  0.85917837  0.87559444    -0.78400
C537        C  0.99994365  0.84386521  0.90089563     0.81500
N538        N  0.99659237  0.81508891  0.91862153    -0.76800
C539        C  0.46960734  0.79625119  0.91177665     0.84000
N540        N  0.44706700  0.80592302  0.88746975    -0.76700
C541        C  0.45061048  0.83402972  0.86894015     0.84100
N542        N  0.47719887  0.85237003  0.87496809    -0.78400
C543        C  0.17074834  0.83682444  0.48120039     0.81500
N544        N  0.19359689  0.84493073  0.50549542    -0.76800
C545        C  0.21886108  0.82498554  0.51303402     0.84000
N546        N  0.22098425  0.79587601  0.49590150    -0.76700
C547        C  0.19836153  0.78701241  0.47133035     0.84100
N548        N  0.17322645  0.80782258  0.46369546    -0.78400
C549        C  0.00213815  0.86728188  0.48774574     0.81500
N550        N  0.99746629  0.89413089  0.46714593    -0.76800
C551        C  0.47203836  0.91363190  0.47374984     0.84000
N552        N  0.45037164  0.90544363  0.49930401    -0.76700
C553        C  0.45473041  0.87809147  0.51908146     0.84100
N554        N  0.48120429  0.85912581  0.51337043    -0.78400
C555        C  0.41636284  0.62279509  0.98934350     0.81500
N556        N  0.43944321  0.61281738  0.01274724    -0.76800
C557        C  0.46634618  0.63096908  0.01880320     0.84000
N558        N  0.46982098  0.65952911  0.00086230    -0.76700
C559        C  0.44678783  0.67002250  0.97742230     0.84100
N560        N  0.41990977  0.65146896  0.97173276    -0.78400
C561        C  0.24399820  0.60181292  0.96514523     0.81500
N562        N  0.22860700  0.60918520  0.99598950    -0.76800
C563        C  0.21077983  0.58673289  0.01330355     0.84000
N564        N  0.20788022  0.55636455  0.99946129    -0.76700
C565        C  0.22275138  0.54828190  0.96861347     0.84100
N566        N  0.24127050  0.57099592  0.95141128    -0.78400
O567        O  0.06319372  0.62806492  0.22947966    -0.73100
O568        O  0.12726264  0.63349074  0.15421619    -0.73100
O569        O  0.06183631  0.63358315  0.15706165    -0.73200
O570        O  0.12827670  0.63027804  0.22624871    -0.73200
O571        O  0.12792275  0.57600088  0.22559412    -0.73200
O572        O  0.06393889  0.57983735  0.14955083    -0.73100
O573        O  0.12929707  0.57922280  0.15353911    -0.73100
O574        O  0.06275570  0.57429262  0.22193226    -0.73200
Ni575      Ni  0.09501831  0.63329719  0.19184055     1.25400
Ni576      Ni  0.09594045  0.57539621  0.18747869     1.25400
C577        C  0.05352433  0.59955987  0.23896170     0.89100
C578        C  0.13883520  0.60663421  0.14165831     0.89000
C579        C  0.05315170  0.60809757  0.14016553     0.89000
C580        C  0.13827439  0.60309004  0.23861971     0.89200
C581        C  0.42100226  0.58821747  0.38974470     0.81500
N582        N  0.42597076  0.56075753  0.40925366    -0.76800
C583        C  0.45212604  0.54117402  0.40268021     0.84000
N584        N  0.47299550  0.54915792  0.37617671    -0.76700
C585        C  0.46807555  0.57662272  0.35658978     0.84100
N586        N  0.44194722  0.59588436  0.36337352    -0.78400
C587        C  0.24343436  0.60357329  0.41545959     0.81500
N588        N  0.24065753  0.63349392  0.43129448    -0.76800
C589        C  0.22035708  0.65657784  0.41693538     0.84000
N590        N  0.20388680  0.64991836  0.38655235    -0.76700
C591        C  0.20689462  0.62044103  0.37055908     0.84100
N592        N  0.22649448  0.59757041  0.38517797    -0.78400
C593        C  0.45702500  0.51033249  0.42269226     0.03600
C594        C  0.42887166  0.98267768  0.42565083     0.03600
C595        C  0.43601959  0.95249694  0.44165250    -0.16900
C596        C  0.46744646  0.94477228  0.45428148     0.03600
C597        C  0.49250072  0.96821517  0.45113930     0.03600
C598        C  0.48820926  0.50275136  0.43609452    -0.16900
H599        H  0.00428858  0.51602648  0.43481850     0.05600
H600        H  0.41682383  0.93463330  0.44409975     0.05600
C601        C  0.23875811  0.71460191  0.42680981     0.03600
C602        C  0.21619097  0.68935186  0.43295227     0.03600
C603        C  0.18603434  0.69702302  0.44871825    -0.16900
C604        C  0.17781666  0.72910967  0.45931336     0.03600
C605        C  0.20130376  0.75414704  0.45475334     0.03600
C606        C  0.23115742  0.74639844  0.43842429    -0.16900
H607        H  0.24889601  0.76557262  0.43472833     0.05600
H608        H  0.16828145  0.67777705  0.45179548     0.05600
C609        C  0.52029412  0.62048303  0.28885431     0.24900
C610        C  0.03280932  0.59433445  0.27081042    -0.23200
C611        C  0.03100039  0.56277244  0.28574078     0.19800
C612        C  0.01145495  0.55658030  0.31502696     0.24900
C613        C  0.48835301  0.58333850  0.32521819    -0.23100
C614        C  0.50169491  0.61439304  0.31931202     0.19800
F615        F  0.49771997  0.63845802  0.34369111    -0.13100
F616        F  0.53449191  0.65007852  0.28506803    -0.15500
F617        F  0.01010543  0.52551048  0.32735372    -0.15500
F618        F  0.04838548  0.53740614  0.27223869    -0.13100
C619        C  0.17728463  0.63356917  0.27698907     0.24900
C620        C  0.16035739  0.60441024  0.26978523    -0.23200
C621        C  0.16095548  0.57938588  0.29530913     0.19800
C622        C  0.17660651  0.58424318  0.32803669     0.24900
C623        C  0.19142475  0.61431326  0.33584650    -0.23100
C624        C  0.19223804  0.63856205  0.30973478     0.19800
F625        F  0.20777161  0.66719954  0.31582047    -0.13100
F626        F  0.17875901  0.65783703  0.25256932    -0.15500
F627        F  0.17579885  0.56022165  0.35275695    -0.15500
F628        F  0.14486473  0.55104175  0.28952035    -0.13100
C629        C  0.17890984  0.62416347  0.05330106     0.24900
C630        C  0.19590053  0.59466309  0.04782121    -0.23200
C631        C  0.19810013  0.57205210  0.07555082     0.19800
C632        C  0.18183552  0.57764370  0.10732458     0.24900
C633        C  0.16229577  0.60573013  0.11189917    -0.23100
C634        C  0.16195450  0.62957013  0.08507010     0.19800
F635        F  0.14348702  0.65693028  0.08848130    -0.13100
F636        F  0.17698047  0.64676878  0.02709281    -0.15500
F637        F  0.18432762  0.55480652  0.13327177    -0.15500
F638        F  0.21585166  0.54423019  0.07176705    -0.13100
C639        C  0.01464557  0.58703286  0.09246965     0.24900
C640        C  0.03160398  0.61285241  0.10866047    -0.23200
C641        C  0.02851026  0.64437911  0.09385619     0.19800
C642        C  0.00843998  0.65017306  0.06473389     0.24900
C643        C  0.49068382  0.62065398  0.04618651    -0.23100
C644        C  0.48416184  0.59487441  0.07012921     0.19800
F645        F  0.45637798  0.57729696  0.06755188    -0.13100
F646        F  0.49786029  0.56420694  0.12185546    -0.15500
F647        F  0.00587213  0.68127175  0.05262949    -0.15500
F648        F  0.04517892  0.67013778  0.10727477    -0.13100
C649        C  0.40825290  0.83461615  0.59206266     0.24900
C650        C  0.39869133  0.86110133  0.61355697    -0.23200
C651        C  0.40720444  0.89299638  0.60269547     0.19800
C652        C  0.42429525  0.89821246  0.57149162     0.24900
C653        C  0.43405857  0.87189423  0.55030210    -0.23100
C654        C  0.42609384  0.83997667  0.56089635     0.19800
F655        F  0.43493020  0.81403640  0.54063263    -0.13100
F656        F  0.39987507  0.80365923  0.60068846    -0.15500
F657        F  0.43226253  0.92927888  0.56270514    -0.15500
F658        F  0.39886497  0.91972445  0.62201283    -0.13100
C659        C  0.41527540  0.87497200  0.78639959     0.24900
C660        C  0.39018979  0.85344333  0.77777118    -0.23200
C661        C  0.38288755  0.82775805  0.80108078     0.19800
C662        C  0.40148660  0.82237559  0.83141030     0.24900
C663        C  0.42808631  0.84259761  0.83933528    -0.23100
C664        C  0.43417700  0.86964026  0.81689098     0.19800
F665        F  0.45909299  0.89039109  0.82348296    -0.13100
F666        F  0.42266087  0.90000406  0.76437920    -0.15500
F667        F  0.39375847  0.79662479  0.85229722    -0.15500
F668        F  0.35772861  0.80732585  0.79419640    -0.13100
C669        C  0.24845590  0.88616142  0.77396902     0.24900
C670        C  0.26626478  0.85686088  0.76950771    -0.23200
C671        C  0.26654484  0.83400451  0.79738130     0.19800
C672        C  0.25065120  0.84113151  0.82943670     0.24900
C673        C  0.23506388  0.87145393  0.83434144    -0.23100
C674        C  0.23356236  0.89351405  0.80612160     0.19800
F675        F  0.21683110  0.92201702  0.80937127    -0.13100
F676        F  0.24582907  0.90824495  0.74727743    -0.15500
F677        F  0.25130172  0.81888766  0.85606964    -0.15500
F678        F  0.28323711  0.80549837  0.79427248    -0.13100
C679        C  0.25551347  0.86930877  0.59248440     0.24900
C680        C  0.27640854  0.84530590  0.60616691    -0.23200
C681        C  0.28098631  0.81615156  0.58681720     0.19800
C682        C  0.26354980  0.81022252  0.55578348     0.24900
C683        C  0.24093926  0.83327706  0.54306188    -0.23100
C684        C  0.23791494  0.86342719  0.56127595     0.19800
F685        F  0.21748496  0.88720225  0.54947725    -0.13100
F686        F  0.25125180  0.89803034  0.60985277    -0.15500
F687        F  0.26848355  0.78138143  0.53884722    -0.15500
F688        F  0.30264564  0.79309326  0.59777434    -0.13100
C689        C  0.04728472  0.83697312  0.51636754     0.24900
C690        C  0.03175182  0.84695608  0.48495937    -0.23200
C691        C  0.04294461  0.83476736  0.45226077     0.19800
C692        C  0.06734988  0.81055718  0.45145780     0.24900
C693        C  0.08080426  0.79881728  0.48331206    -0.23100
C694        C  0.07158433  0.81331529  0.51551591     0.19800
F695        F  0.08514207  0.80329673  0.54659137    -0.13100
F696        F  0.03825823  0.84951821  0.54822629    -0.15500
F697        F  0.07579326  0.79675544  0.42007985    -0.15500
F698        F  0.53303050  0.84583824  0.42254932    -0.13100
C699        C  0.12818273  0.86862050  0.51164762     0.24900
C700        C  0.14138425  0.85766427  0.47944690    -0.23200
C701        C  0.12876355  0.87001087  0.44740857     0.19800
C702        C  0.10472290  0.89468689  0.44789393     0.24900
C703        C  0.09333096  0.90707470  0.48042745    -0.23100
C704        C  0.10451390  0.89285984  0.51214501     0.19800
F705        F  0.09274360  0.90274089  0.54404309    -0.13100
F706        F  0.13872323  0.85615124  0.54305915    -0.15500
F707        F  0.09423964  0.90787094  0.41689148    -0.15500
F708        F  0.14117717  0.85984819  0.41598340    -0.13100
C709        C  0.06673549  0.70595687  0.56685855     0.24900
C710        C  0.09083627  0.69507519  0.54258285    -0.23200
C711        C  0.10371675  0.66350831  0.54667397     0.19800
C712        C  0.09494389  0.64452943  0.57575353     0.24900
C713        C  0.07311630  0.65656473  0.60132572    -0.23100
C714        C  0.05810310  0.68680749  0.59603046     0.19800
F715        F  0.03714517  0.69894639  0.62051372    -0.13100
F716        F  0.05282477  0.73594898  0.56390878    -0.15500
F717        F  0.10903036  0.61473994  0.57994813    -0.15500
F718        F  0.12555231  0.65124594  0.52320202    -0.13100
C719        C  0.09779973  0.52985247  0.59041069     0.24900
C720        C  0.07297334  0.53223739  0.61597437    -0.23200
C721        C  0.04377292  0.51498393  0.61008026     0.19800
C722        C  0.03861516  0.49798082  0.57849802     0.24900
C723        C  0.06267655  0.49708272  0.55236113    -0.23100
C724        C  0.09275217  0.51212048  0.55901011     0.19800
F725        F  0.11676551  0.51072553  0.53444460    -0.13100
F726        F  0.12635509  0.54580423  0.59492623    -0.15500
F727        F  0.01016813  0.48185525  0.57368829    -0.15500
F728        F  0.01972764  0.51494985  0.63465728    -0.13100
C729        C  0.10562478  0.80922707  0.93380527     0.24900
C730        C  0.09116147  0.80060962  0.90121885    -0.23200
C731        C  0.09990910  0.81769694  0.87048455     0.19800
C732        C  0.12408853  0.84120419  0.87162489     0.24900
C733        C  0.14034487  0.84832529  0.90348950    -0.23100
C734        C  0.13028702  0.83300700  0.93491671     0.19800
F735        F  0.14589031  0.83921772  0.96593841    -0.13100
F736        F  0.09769112  0.79299973  0.96385597    -0.15500
F737        F  0.13243373  0.85645083  0.84103563    -0.15500
F738        F  0.08536471  0.81115484  0.83887360    -0.13100
C739        C  0.08974144  0.69762023  0.81853992     0.24900
C740        C  0.05855512  0.70857095  0.82834487    -0.23200
C741        C  0.03220326  0.70254823  0.80562219     0.19800
C742        C  0.03674327  0.68546346  0.77395791     0.24900
C743        C  0.06777381  0.67321696  0.76452274    -0.23100
C744        C  0.09429686  0.67985535  0.78712539     0.19800
F745        F  0.12442502  0.66807863  0.77971684    -0.13100
F746        F  0.11566968  0.70305393  0.84010600    -0.15500
F747        F  0.01039022  0.68060336  0.75282170    -0.15500
F748        F  0.00199308  0.71381560  0.81368078    -0.13100
C749        C  0.06682087  0.89705762  0.86726653     0.24900
C750        C  0.07944128  0.91093277  0.89843772    -0.23200
C751        C  0.06900367  0.89892464  0.93145456     0.19800
C752        C  0.04441016  0.87506459  0.93298976     0.24900
C753        C  0.03031743  0.86309200  0.90149728    -0.23100
C754        C  0.04272039  0.87351054  0.86877626     0.19800
F755        F  0.03068638  0.86148044  0.83783781    -0.13100
F756        F  0.07732861  0.90696769  0.83493508    -0.15500
F757        F  0.53520999  0.86230357  0.96298133    -0.15500
F758        F  0.08068495  0.91202640  0.96197538    -0.13100
C759        C  0.06919251  0.00795422  0.81586809     0.24900
C760        C  0.09792088  0.51405586  0.84093681    -0.23200
C761        C  0.12125655  0.53502257  0.82643901     0.19800
C762        C  0.11451772  0.55247923  0.79563087     0.24900
C763        C  0.08421951  0.54954010  0.77812820    -0.23100
C764        C  0.05999050  0.53045778  0.79382005     0.19800
F765        F  0.03012946  0.52798355  0.77861415    -0.13100
F766        F  0.04788171  0.98427600  0.82502996    -0.15500
F767        F  0.13814564  0.57226788  0.78291060    -0.15500
F768        F  0.15134106  0.53786589  0.84105274    -0.13100
C769        C  0.36074332  0.60560456  0.00635573     0.24900
C770        C  0.38771031  0.60222797  0.98392836    -0.23200
C771        C  0.38919992  0.57598616  0.96005205     0.19800
C772        C  0.36471963  0.55242544  0.95982320     0.24900
C773        C  0.33857278  0.55492048  0.98348269    -0.23100
C774        C  0.33628974  0.58199509  0.00617912     0.19800
F775        F  0.31140024  0.58444957  0.02959436    -0.13100
F776        F  0.35909281  0.63073573  0.02976448    -0.15500
F777        F  0.36760205  0.52603747  0.93825275    -0.15500
F778        F  0.41532209  0.57220766  0.93850587    -0.13100
C779        C  0.25725353  0.66027702  0.95590975     0.24900
C780        C  0.26548884  0.62738767  0.94988435    -0.23200
C781        C  0.29691853  0.62026216  0.93719021     0.19800
C782        C  0.32123008  0.64450864  0.93782886     0.24900
C783        C  0.31409484  0.67588240  0.95117348    -0.23100
C784        C  0.28124938  0.68418686  0.95667126     0.19800
F785        F  0.27264821  0.71511889  0.96571542    -0.13100
F786        F  0.22627463  0.66887056  0.96430084    -0.15500
F787        F  0.35200054  0.63660934  0.92819969    -0.15500
F788        F  0.30474250  0.58949394  0.92701441    -0.13100
C789        C  0.36160813  0.65194696  0.42275999     0.24900
C790        C  0.33850683  0.65186217  0.39522178    -0.23200
C791        C  0.34119526  0.62872073  0.36789234     0.19800
C792        C  0.36733991  0.60681329  0.36730782     0.24900
C793        C  0.39124191  0.60784149  0.39392961    -0.23100
C794        C  0.38791576  0.63001486  0.42211503     0.19800
F795        F  0.41102933  0.63160436  0.44783748    -0.13100
F796        F  0.35980939  0.67464605  0.44891580    -0.15500
F797        F  0.37016245  0.58546870  0.33991044    -0.15500
F798        F  0.31937321  0.62852872  0.34077520    -0.13100
C799        C  0.31394637  0.90177354  0.07744671     0.24900
C800        C  0.33571292  0.91174271  0.10415079    -0.23200
C801        C  0.35197902  0.94143084  0.10048614     0.19800
C802        C  0.34498058  0.96184998  0.07152463     0.24900
C803        C  0.32152382  0.95273936  0.04569206    -0.23100
C804        C  0.30697269  0.92188423  0.04857085     0.19800
F805        F  0.28540692  0.91120155  0.02386001    -0.13100
F806        F  0.29852380  0.87264942  0.07995589    -0.15500
F807        F  0.36003427  0.99119461  0.06996442    -0.15500
F808        F  0.37291214  0.95164810  0.12605129    -0.13100
C809        C  0.36454886  0.76665823  0.10587892     0.24900
C810        C  0.33524816  0.78422832  0.11093910    -0.23200
C811        C  0.31083713  0.78194164  0.08472565     0.19800
C812        C  0.31650512  0.76418163  0.05337796     0.24900
C813        C  0.34681716  0.74891876  0.04752575    -0.23100
C814        C  0.37032261  0.74963111  0.07451009     0.19800
F815        F  0.39918435  0.73379321  0.07052875    -0.13100
F816        F  0.38834007  0.76655871  0.13096387    -0.15500
F817        F  0.29305611  0.76347635  0.02795661    -0.15500
F818        F  0.28222368  0.79821814  0.08846083    -0.13100
C819        C  0.34788148  0.77717545  0.29006355     0.24900
C820        C  0.32208157  0.78866758  0.26874712    -0.23200
C821        C  0.28992580  0.77989995  0.27800967     0.19800
C822        C  0.28382630  0.76073569  0.30771559     0.24900
C823        C  0.30951388  0.74926730  0.32882377    -0.23100
C824        C  0.34164346  0.75750829  0.31968754     0.19800
F825        F  0.36702399  0.74707495  0.33990661    -0.13100
F826        F  0.37909740  0.78517607  0.28261448    -0.15500
F827        F  0.25263614  0.75243816  0.31505033    -0.15500
F828        F  0.26392031  0.78964159  0.25831214    -0.13100
C829        C  0.32344367  0.56287547  0.43962593     0.24900
C830        C  0.31821443  0.53201489  0.42419885    -0.23200
C831        C  0.28606552  0.52270044  0.41662360     0.19800
C832        C  0.26077582  0.54538560  0.41827699     0.24900
C833        C  0.26694632  0.57806738  0.42746075    -0.23100
C834        C  0.29784120  0.58588580  0.44124331     0.19800
F835        F  0.30387396  0.61630152  0.45368245    -0.13100
F836        F  0.35360219  0.57155962  0.45061143    -0.15500
F837        F  0.23053446  0.53587393  0.40816065    -0.15500
F838        F  0.27935347  0.49204115  0.40515867    -0.13100
C839        C  0.31662655  0.92063362  0.29353543     0.24900
C840        C  0.34005813  0.91932533  0.26646395    -0.23200
C841        C  0.36951878  0.93634709  0.27133711     0.19800
C842        C  0.37589009  0.95310548  0.30287962     0.24900
C843        C  0.35283690  0.95377955  0.33017581    -0.23100
C844        C  0.32288963  0.93788995  0.32500781     0.19800
F845        F  0.30033077  0.93764786  0.35118633    -0.13100
F846        F  0.28852059  0.90362772  0.29052897    -0.15500
F847        F  0.40459101  0.96901989  0.30656077    -0.15500
F848        F  0.39258244  0.93641253  0.24566304    -0.13100
C849        C  0.84245286  0.00883132  0.40770700     0.81500
N850        N  0.87248133  0.00686527  0.42337370    -0.76800
C851        C  0.89636374  0.98806726  0.40825277     0.84000
N852        N  0.88966079  0.47076267  0.37910925    -0.76700
C853        C  0.86001943  0.47257274  0.36331119     0.84100
N854        N  0.83701441  0.99229787  0.37700094    -0.78400
O855        O  0.81022223  0.31844848  0.15262363    -0.73100
O856        O  0.81163531  0.38626694  0.22455927    -0.73100
O857        O  0.81170958  0.38366327  0.15210345    -0.73200
O858        O  0.80764435  0.32096414  0.22478916    -0.73200
O859        O  0.86157547  0.31909765  0.22935799    -0.73200
O860        O  0.86587630  0.38056177  0.15119190    -0.73100
O861        O  0.86571193  0.38432023  0.22353643    -0.73100
O862        O  0.86410719  0.31520974  0.15698219    -0.73200
Ni863      Ni  0.80839750  0.35244714  0.18849874     1.25400
Ni864      Ni  0.86627833  0.34969752  0.19032768     1.25400
C865        C  0.83754683  0.30623656  0.14244471     0.89100
C866        C  0.83941524  0.39592105  0.23633636     0.89000
C867        C  0.83882620  0.39113647  0.13819385     0.89000
C868        C  0.83323574  0.31085810  0.24052728     0.89200
C869        C  0.81874467  0.18063357  0.39465848     0.81500
N870        N  0.82689698  0.20242486  0.36928589    -0.76800
C871        C  0.80773658  0.22859957  0.36243291     0.84000
N872        N  0.77992986  0.23256904  0.38140227    -0.76700
C873        C  0.77110077  0.21065622  0.40658993     0.84100
N874        N  0.79068925  0.18448425  0.41322540    -0.78400
C875        C  0.84066851  0.19786712  0.96703088     0.81500
N876        N  0.83456307  0.21409367  0.99778659    -0.76800
C877        C  0.85739678  0.23287474  0.01347082     0.84000
N878        N  0.88696488  0.23575263  0.99808120    -0.76700
C879        C  0.89380977  0.21999734  0.96731509     0.84100
N880        N  0.87067123  0.20066000  0.95174542    -0.78400
C881        C  0.82064602  0.02511356  0.98640206     0.81500
N882        N  0.79208427  0.02054883  0.96883694    -0.76800
C883        C  0.77429557  0.99314775  0.97478160     0.84000
N884        N  0.78386616  0.47101920  0.00102536    -0.76700
C885        C  0.81205080  0.47539217  0.01945312     0.84100
N886        N  0.83128327  0.00256590  0.00994707    -0.78400
C887        C  0.74218313  0.48806772  0.95770803     0.03600
C888        C  0.71975169  0.01329316  0.95110275     0.03600
C889        C  0.68920318  0.00589915  0.93610229    -0.16900
C890        C  0.67956618  0.47442351  0.92877261     0.03600
C891        C  0.70322193  0.44913920  0.93141900     0.03600
C892        C  0.73393601  0.45637202  0.94624021    -0.16900
H893        H  0.75194913  0.43703202  0.94837186     0.05600
H894        H  0.67142598  0.02537481  0.93318915     0.05600
C895        C  0.59965474  0.43958365  0.89961619     0.81500
N896        N  0.62840761  0.44312710  0.91729228    -0.76800
C897        C  0.64716811  0.47000624  0.91140162     0.84000
N898        N  0.63655461  0.49313241  0.88814266    -0.76700
C899        C  0.60778466  0.48991358  0.87067127     0.84500
N900        N  0.58982361  0.46302585  0.87662428    -0.78400
C901        C  0.57089099  0.27124463  0.89770298     0.81500
N902        N  0.57679806  0.25157003  0.86953754    -0.76800
C903        C  0.55595701  0.22771455  0.86027148     0.84000
N904        N  0.52843045  0.22350012  0.87947927    -0.76700
C905        C  0.52211600  0.24265475  0.90814102     0.84100
N906        N  0.54354673  0.26662010  0.91736190    -0.78400
O907        O  0.60470865  0.07321981  0.65159636    -0.73100
O908        O  0.60274819  0.14363337  0.72036852    -0.73100
O909        O  0.60829407  0.07856242  0.72350111    -0.73200
O910        O  0.60213944  0.13808502  0.64803988    -0.73200
O911        O  0.54809660  0.13373574  0.64683431    -0.73200
O912        O  0.55451716  0.07678809  0.72897819    -0.73100
O913        O  0.54875192  0.14145743  0.71892393    -0.73100
O914        O  0.55105855  0.06928418  0.65718113    -0.73200
Ni915      Ni  0.60639787  0.10854316  0.68586939     1.25400
Ni916      Ni  0.54863964  0.10526709  0.68810117     1.25400
C917        C  0.57743708  0.06039965  0.64236755     0.89100
C918        C  0.57482192  0.15336897  0.73171550     0.89000
C919        C  0.58320057  0.06892973  0.74002515     0.89000
C920        C  0.57487717  0.14372492  0.63313481     0.89200
C921        C  0.57410724  0.43864363  0.48396307     0.81500
N922        N  0.58062616  0.45892232  0.51155447    -0.76800
C923        C  0.56042727  0.48392012  0.51969085     0.84000
N924        N  0.53308318  0.48860358  0.49994988    -0.76700
C925        C  0.52627013  0.46879143  0.47197409     0.84100
N926        N  0.54686716  0.44365746  0.46401601    -0.78400
C927        C  0.59710901  0.26779520  0.47784116     0.81500
N928        N  0.58582155  0.24502934  0.50044146    -0.76800
C929        C  0.60321415  0.21810300  0.50853414     0.84000
N930        N  0.63287157  0.21383055  0.49328493    -0.76700
C931        C  0.64487212  0.23629375  0.47019910     0.84100
N932        N  0.62678886  0.26350492  0.46255156    -0.78400
C933        C  0.95233997  0.20221501  0.95770045     0.03600
C934        C  0.92654364  0.22463427  0.95165801     0.03600
C935        C  0.93331649  0.25490730  0.93568674    -0.16900
C936        C  0.96484369  0.26319521  0.92424934     0.03600
C937        C  0.99027544  0.23990765  0.92822803     0.03600
C938        C  0.98372794  0.21002603  0.94532193    -0.16900
H939        H  0.50328683  0.19048417  0.94459809     0.05600
H940        H  0.91372876  0.27250739  0.93256460     0.05600
O941        O  0.79730173  0.32989401  0.72870569    -0.73100
O942        O  0.86480941  0.33116498  0.65681857    -0.73100
O943        O  0.86212249  0.33209420  0.72957807    -0.73200
O944        O  0.79970240  0.32611015  0.65636966    -0.73200
O945        O  0.79723718  0.38011463  0.65130948    -0.73200
O946        O  0.85800695  0.38639225  0.72988227    -0.73100
O947        O  0.86190456  0.38528893  0.65775330    -0.73100
O948        O  0.79328132  0.38378196  0.72323212    -0.73200
Ni949      Ni  0.83112932  0.32783725  0.69287491     1.25400
Ni950      Ni  0.82750823  0.38580405  0.69042771     1.25400
C951        C  0.78507206  0.35743798  0.73853157     0.89100
C952        C  0.87377917  0.35913455  0.64484528     0.89000
C953        C  0.86886229  0.35962874  0.74334272     0.89000
C954        C  0.78896842  0.35148851  0.64064708     0.89200
C955        C  0.67078373  0.36776487  0.90371451     0.81500
N956        N  0.67446795  0.39618445  0.92212864    -0.76800
C957        C  0.69924896  0.41689932  0.91374899     0.84000
N958        N  0.71976957  0.40900997  0.88678000    -0.76700
C959        C  0.71639804  0.38041330  0.86896660     0.84100
N960        N  0.69200403  0.36019061  0.87760348    -0.78400
C961        C  0.50165291  0.34151799  0.89530558     0.81500
N962        N  0.49680829  0.31294468  0.91280151    -0.76800
C963        C  0.96956188  0.29514990  0.90593761     0.84000
N964        N  0.94733364  0.30524429  0.88130348    -0.76700
C965        C  0.95161616  0.33359105  0.86318055     0.84100
N966        N  0.97835196  0.35157273  0.86988384    -0.78400
C967        C  0.67101880  0.33825098  0.47803534     0.81500
N968        N  0.69326766  0.34598106  0.50316633    -0.76800
C969        C  0.71765088  0.32535365  0.51169111     0.84000
N970        N  0.71996259  0.29624471  0.49468838    -0.76700
C971        C  0.69829995  0.28808500  0.46882003     0.84100
N972        N  0.67357102  0.30921849  0.46052073    -0.78400
C973        C  0.50249348  0.36957585  0.48729094     0.81500
N974        N  0.49821526  0.39729805  0.46794189    -0.76800
C975        C  0.97015983  0.41325714  0.47388526     0.84000
N976        N  0.94922831  0.40587065  0.50042526    -0.76700
C977        C  0.95308509  0.37819189  0.51976936     0.84100
N978        N  0.97825264  0.35794208  0.51241780    -0.78400
C979        C  0.91551051  0.12481160  0.98993624     0.81500
N980        N  0.93788902  0.11486768  0.01401764    -0.76800
C981        C  0.96509088  0.13243086  0.02028146     0.84000
N982        N  0.96973783  0.16058093  0.00168328    -0.76700
C983        C  0.94731722  0.17103874  0.97737253     0.84100
N984        N  0.92021477  0.15281570  0.97149351    -0.78400
C985        C  0.74522222  0.09998509  0.96671774     0.81500
N986        N  0.72890095  0.10598812  0.99733402    -0.76800
C987        C  0.71064453  0.08284442  0.01296421     0.84000
N988        N  0.70836339  0.05300009  0.99767724    -0.76700
C989        C  0.72419636  0.04621647  0.96697983     0.84100
N990        N  0.74302236  0.06972403  0.95145909    -0.78400
O991        O  0.55495199  0.12354672  0.22208749    -0.73100
O992        O  0.62373101  0.12862703  0.15183100    -0.73100
O993        O  0.55863245  0.12651965  0.14955003    -0.73200
O994        O  0.62009228  0.12834626  0.22421600    -0.73200
O995        O  0.62272939  0.07419032  0.22555516    -0.73200
O996        O  0.56227230  0.07233623  0.14593046    -0.73100
O997        O  0.62739417  0.07446331  0.15335122    -0.73100
O998        O  0.55788463  0.06954038  0.21812541    -0.73200
Ni999      Ni  0.58919891  0.12869174  0.18699780     1.25400
Ni1000     Ni  0.59265656  0.07070489  0.18570111     1.25400
C1001       C  0.54580779  0.09506257  0.23231791     0.89100
C1002       C  0.63636940  0.10173269  0.14058862     0.89000
C1003       C  0.55153431  0.09982485  0.13408485     0.89000
C1004       C  0.63091364  0.10216622  0.23826389     0.89200
C1005       C  0.91875348  0.08550014  0.39226197     0.81500
N1006       N  0.92351064  0.05747902  0.41075369    -0.76800
C1007       C  0.94906347  0.03765920  0.40279199     0.84000
N1008       N  0.96945439  0.04591984  0.37601632    -0.76700
C1009       C  0.96454455  0.07383775  0.35725105     0.84100
N1010       N  0.93907408  0.09343900  0.36545724    -0.78400
C1011       C  0.74248485  0.10417010  0.41160843     0.81500
N1012       N  0.74108418  0.13433075  0.42726778    -0.76800
C1013       C  0.72081140  0.15786082  0.41362086     0.84000
N1014       N  0.70269602  0.15118999  0.38440106    -0.76700
C1015       C  0.70428954  0.12162436  0.36840001     0.84100
N1016       N  0.72407466  0.09839491  0.38221580    -0.78400
C1017       C  0.95399714  0.00647965  0.42174326     0.03600
C1018       C  0.92834591  0.48350037  0.42625074     0.03600
C1019       C  0.93492048  0.45302996  0.44196483    -0.16900
C1020       C  0.96606112  0.44474913  0.45490033     0.03600
C1021       C  0.99128719  0.46802427  0.45275003     0.03600
C1022       C  0.98523937  0.99894570  0.43492164    -0.16900
H1023       H  0.50453773  0.01615828  0.43209734     0.05600
H1024       H  0.91551901  0.43532613  0.44383644     0.05600
C1025       C  0.74002552  0.21566485  0.42585259     0.03600
C1026       C  0.71684643  0.19059942  0.43009112     0.03600
C1027       C  0.68602923  0.19868194  0.44394384    -0.16900
C1028       C  0.67772720  0.23075661  0.45445473     0.03600
C1029       C  0.70165255  0.25549357  0.45177540     0.03600
C1030       C  0.73221765  0.24747694  0.43731485    -0.16900
H1031       H  0.75038965  0.26643735  0.43505770     0.05600
H1032       H  0.66785057  0.17969102  0.44573968     0.05600
C1033       C  0.01261591  0.11892836  0.28673853     0.24900
C1034       C  0.52259295  0.09026499  0.26217504    -0.23200
C1035       C  0.51359104  0.05821741  0.27192927     0.19800
C1036       C  0.49543234  0.05247533  0.30236633     0.24900
C1037       C  0.98427262  0.08087022  0.32554587    -0.23100
C1038       C  0.99388588  0.11286201  0.31710994     0.19800
F1039       F  0.98614919  0.13806260  0.33894454    -0.13100
F1040       F  0.02287107  0.14977096  0.28037505    -0.15500
F1041       F  0.48746574  0.02125084  0.31045354    -0.15500
F1042       F  0.52256136  0.03189567  0.25229746    -0.13100
C1043       C  0.66488851  0.13644054  0.27906281     0.24900
C1044       C  0.65199529  0.10554458  0.27031474    -0.23200
C1045       C  0.65716183  0.07954180  0.29410905     0.19800
C1046       C  0.67432582  0.08452170  0.32597196     0.24900
C1047       C  0.68632737  0.11565964  0.33482641    -0.23100
C1048       C  0.68156101  0.14139763  0.31083673     0.19800
F1049       F  0.69358191  0.17155094  0.31774813    -0.13100
F1050       F  0.66131842  0.16234836  0.25694957    -0.15500
F1051       F  0.67808974  0.05915804  0.34874760    -0.15500
F1052       F  0.64461549  0.04962118  0.28729819    -0.13100
C1053       C  0.67686431  0.11903073  0.05232221     0.24900
C1054       C  0.69431774  0.08978607  0.04701289    -0.23200
C1055       C  0.69609462  0.06697187  0.07459270     0.19800
C1056       C  0.67950681  0.07244621  0.10627933     0.24900
C1057       C  0.66000894  0.10060290  0.11088725    -0.23100
C1058       C  0.65964635  0.12432792  0.08392635     0.19800
F1059       F  0.64103070  0.15160617  0.08709182    -0.13100
F1060       F  0.67486142  0.14159150  0.02607642    -0.15500
F1061       F  0.68181970  0.04952847  0.13215754    -0.15500
F1062       F  0.71393192  0.03920428  0.07085189    -0.13100
C1063       C  0.50329934  0.08509432  0.09603627     0.24900
C1064       C  0.53211749  0.10252908  0.10114709    -0.23200
C1065       C  0.54070823  0.12657899  0.07636126     0.19800
C1066       C  0.52007357  0.13453817  0.04814644     0.24900
C1067       C  0.98877255  0.12109178  0.04788490    -0.23100
C1068       C  0.98050438  0.09621843  0.07238855     0.19800
F1069       F  0.95120788  0.08117694  0.07082820    -0.13100
F1070       F  0.99239929  0.06516741  0.12438581    -0.15500
F1071       F  0.52949519  0.15827607  0.02539031    -0.15500
F1072       F  0.56905754  0.14310911  0.08002768    -0.13100
C1073       C  0.90663073  0.33586534  0.59376812     0.24900
C1074       C  0.89649600  0.36270345  0.61438968    -0.23200
C1075       C  0.90570445  0.39436127  0.60346091     0.19800
C1076       C  0.92325962  0.39909324  0.57245356     0.24900
C1077       C  0.93297695  0.37246343  0.55163580    -0.23100
C1078       C  0.92497218  0.34070715  0.56284135     0.19800
F1079       F  0.93407905  0.31439190  0.54330781    -0.13100
F1080       F  0.89821927  0.30504949  0.60292839    -0.15500
F1081       F  0.93147511  0.43001868  0.56337288    -0.15500
F1082       F  0.89755068  0.42131211  0.62251276    -0.13100
C1083       C  0.91896682  0.37231558  0.77823337     0.24900
C1084       C  0.88785067  0.35890702  0.77640584    -0.23200
C1085       C  0.87667620  0.33947919  0.80450498     0.19800
C1086       C  0.89690736  0.33211744  0.83326617     0.24900
C1087       C  0.92893093  0.34389352  0.83440811    -0.23100
C1088       C  0.93943468  0.36488282  0.80692172     0.19800
F1089       F  0.97014017  0.37679787  0.80650142    -0.13100
F1090       F  0.93037246  0.39062205  0.75106200    -0.15500
F1091       F  0.88522435  0.31302612  0.85965066    -0.15500
F1092       F  0.84629568  0.32668153  0.80345038    -0.13100
C1093       C  0.74798743  0.39094727  0.77641075     0.24900
C1094       C  0.76350642  0.36067107  0.76982635    -0.23200
C1095       C  0.76241103  0.33642329  0.79618958     0.19800
C1096       C  0.74751869  0.34295795  0.82886066     0.24900
C1097       C  0.73425061  0.37398784  0.83595767    -0.23100
C1098       C  0.73409921  0.39764488  0.80925311     0.19800
F1099       F  0.71950957  0.42705227  0.81454464    -0.13100
F1100       F  0.74657268  0.41455283  0.75119359    -0.15500
F1101       F  0.74675836  0.31925856  0.85394476    -0.15500
F1102       F  0.77670188  0.30689443  0.79097487    -0.13100
C1103       C  0.76459752  0.37077433  0.58275746     0.24900
C1104       C  0.76835474  0.34639832  0.60873460    -0.23200
C1105       C  0.75509937  0.31522004  0.60214226     0.19800
C1106       C  0.73994966  0.30819401  0.56995408     0.24900
C1107       C  0.73697652  0.33221110  0.54376370    -0.23100
C1108       C  0.74876516  0.36377459  0.55065423     0.19800
F1109       F  0.74539157  0.38769325  0.52602267    -0.13100
F1110       F  0.77693150  0.40106185  0.58790993    -0.15500
F1111       F  0.72687961  0.27815945  0.56504329    -0.15500
F1112       F  0.75655210  0.29126960  0.62695900    -0.13100
C1113       C  0.54771041  0.33702606  0.51259539     0.24900
C1114       C  0.53104553  0.34800023  0.48228980    -0.23200
C1115       C  0.54030176  0.33590784  0.44879298     0.19800
C1116       C  0.56423215  0.31123908  0.44620755     0.24900
C1117       C  0.57927281  0.29906464  0.47705923    -0.23100
C1118       C  0.57160278  0.31310705  0.50995744     0.19800
F1119       F  0.58631600  0.30234925  0.54011226    -0.13100
F1120       F  0.54031239  0.34897777  0.54520800    -0.15500
F1121       F  0.57072260  0.29753965  0.41422148    -0.15500
F1122       F  0.02814939  0.34594777  0.41887752    -0.13100
C1123       C  0.62766036  0.36804569  0.50915838     0.24900
C1124       C  0.64144895  0.35879417  0.47662430    -0.23200
C1125       C  0.62957290  0.37299464  0.44516898     0.19800
C1126       C  0.60596399  0.39805696  0.44680797     0.24900
C1127       C  0.59444180  0.40902917  0.47991559    -0.23100
C1128       C  0.60458117  0.39277979  0.51079793     0.19800
F1129       F  0.59239845  0.40117415  0.54299629    -0.13100
F1130       F  0.63731378  0.35357334  0.53987608    -0.15500
F1131       F  0.59615828  0.41303779  0.41650860    -0.15500
F1132       F  0.64237482  0.36433797  0.41339851    -0.13100
C1133       C  0.56677929  0.20685357  0.56095363     0.24900
C1134       C  0.59159556  0.19639147  0.53735814    -0.23200
C1135       C  0.60673969  0.16612025  0.54349313     0.19800
C1136       C  0.59917796  0.14809869  0.57364416     0.24900
C1137       C  0.57627442  0.15975216  0.59832939    -0.23100
C1138       C  0.55927119  0.18860178  0.59118971     0.19800
F1139       F  0.53728954  0.20040244  0.61476873    -0.13100
F1140       F  0.55101945  0.23571874  0.55624271    -0.15500
F1141       F  0.61533634  0.11962211  0.57957711    -0.15500
F1142       F  0.62968635  0.15429340  0.52102230    -0.13100
C1143       C  0.59990656  0.03344112  0.58744016     0.24900
C1144       C  0.57474252  0.03708225  0.61236356    -0.23200
C1145       C  0.54459100  0.02178547  0.60553829     0.19800
C1146       C  0.53914127  0.00522707  0.57381859     0.24900
C1147       C  0.56385723  0.00257658  0.54857380    -0.23100
C1148       C  0.59455950  0.01601342  0.55596115     0.19800
F1149       F  0.61907885  0.01311139  0.53215135    -0.13100
F1150       F  0.62926328  0.04762792  0.59281104    -0.15500
F1151       F  0.50982204  0.99096877  0.56821619    -0.15500
F1152       F  0.51991314  0.02312040  0.62934396    -0.13100
C1153       C  0.60498425  0.30967952  0.93515708     0.24900
C1154       C  0.59196289  0.30010949  0.90216699    -0.23200
C1155       C  0.60179181  0.31658371  0.87141146     0.19800
C1156       C  0.62574441  0.34021763  0.87300269     0.24900
C1157       C  0.64084379  0.34808416  0.90534784    -0.23100
C1158       C  0.62953066  0.33358950  0.93673204     0.19800
F1159       F  0.64365528  0.34087845  0.96830305    -0.13100
F1160       F  0.59559559  0.29445260  0.96530960    -0.15500
F1161       F  0.63489541  0.35495498  0.84238354    -0.15500
F1162       F  0.58847262  0.30941123  0.83931755    -0.13100
C1163       C  0.59299069  0.20059028  0.81621722     0.24900
C1164       C  0.56140207  0.20968235  0.82686580    -0.23200
C1165       C  0.53517869  0.20353988  0.80404777     0.19800
C1166       C  0.54010376  0.18756428  0.77186174     0.24900
C1167       C  0.57143168  0.17645089  0.76195737    -0.23100
C1168       C  0.59795285  0.18387242  0.78420209     0.19800
F1169       F  0.62849909  0.17391931  0.77578722    -0.13100
F1170       F  0.61897969  0.20685887  0.83741746    -0.15500
F1171       F  0.51376189  0.18250505  0.75075741    -0.15500
F1172       F  0.50465695  0.21362080  0.81251417    -0.13100
C1173       C  0.56932753  0.39666784  0.86796222     0.24900
C1174       C  0.58047288  0.40913575  0.90048452    -0.23200
C1175       C  0.56937472  0.39492536  0.93217174     0.19800
C1176       C  0.54516213  0.37062959  0.93108187     0.24900
C1177       C  0.53206128  0.36054010  0.89830977    -0.23100
C1178       C  0.54560666  0.37271504  0.86689787     0.19800
F1179       F  0.53518098  0.36193229  0.83476584    -0.13100
F1180       F  0.58081500  0.40849159  0.83681729    -0.15500
F1181       F  0.03326313  0.35850302  0.96054519    -0.15500
F1182       F  0.58012668  0.40612725  0.96396217    -0.13100
C1183       C  0.56947999  0.50778876  0.82146457     0.24900
C1184       C  0.60329301  0.01050801  0.83302066    -0.23200
C1185       C  0.62693880  0.03116325  0.81860488     0.19800
C1186       C  0.61986163  0.05036383  0.78912889     0.24900
C1187       C  0.58892130  0.04942928  0.77267956    -0.23100
C1188       C  0.56483325  0.02960363  0.78754246     0.19800
F1189       F  0.53472086  0.02816353  0.77276029    -0.13100
F1190       F  0.54833816  0.48363996  0.82959622    -0.15500
F1191       F  0.64379696  0.06996056  0.77674655    -0.15500
F1192       F  0.65755638  0.03224370  0.83215496    -0.13100
C1193       C  0.85942576  0.10632953  0.00391486     0.24900
C1194       C  0.88753514  0.10369358  0.98305421    -0.23200
C1195       C  0.89130059  0.07699944  0.96011983     0.19800
C1196       C  0.86795526  0.05236790  0.95919263     0.24900
C1197       C  0.84049675  0.05427231  0.98105946    -0.23100
C1198       C  0.83594884  0.08169783  0.00287568     0.19800
F1199       F  0.80975249  0.08362030  0.02459268    -0.13100
F1200       F  0.85562297  0.13180542  0.02658260    -0.15500
F1201       F  0.87320574  0.02556958  0.93877766    -0.15500
F1202       F  0.91873405  0.07373618  0.94048919    -0.13100
C1203       C  0.75850113  0.15902244  0.96162768     0.24900
C1204       C  0.76657866  0.12655404  0.95302025    -0.23200
C1205       C  0.79732269  0.12049114  0.93781698     0.19800
C1206       C  0.82134273  0.14509359  0.93795580     0.24900
C1207       C  0.81463734  0.17583360  0.95322328    -0.23100
C1208       C  0.78213349  0.18326155  0.96169562     0.19800
F1209       F  0.77359152  0.21366552  0.97272016    -0.13100
F1210       F  0.72806694  0.16695916  0.97267147    -0.15500
F1211       F  0.85158922  0.13802062  0.92587737    -0.15500
F1212       F  0.80496851  0.09032965  0.92551886    -0.13100
C1213       C  0.86488932  0.15319386  0.42528825     0.24900
C1214       C  0.83992283  0.15229652  0.39981466    -0.23200
C1215       C  0.83909752  0.12699199  0.37479250     0.19800
C1216       C  0.86398458  0.10375926  0.37397239     0.24900
C1217       C  0.88991965  0.10571120  0.39810722    -0.23100
C1218       C  0.88984786  0.12985942  0.42448261     0.19800
F1219       F  0.91492150  0.13200811  0.44787968    -0.13100
F1220       F  0.86622077  0.17787994  0.44926349    -0.15500
F1221       F  0.86367719  0.08025078  0.34857731    -0.15500
F1222       F  0.81512966  0.12593048  0.34995945    -0.13100
C1223       C  0.81460596  0.40111873  0.07923678     0.24900
C1224       C  0.83713573  0.41051824  0.10541379    -0.23200
C1225       C  0.85361168  0.44008334  0.10178295     0.19800
C1226       C  0.84622630  0.46089732  0.07331550     0.24900
C1227       C  0.82224199  0.45225645  0.04789375    -0.23100
C1228       C  0.80724120  0.42162011  0.05084270     0.19800
F1229       F  0.78485633  0.41152294  0.02671007    -0.13100
F1230       F  0.79888477  0.37215680  0.08177213    -0.15500
F1231       F  0.86145558  0.49015506  0.07186490    -0.15500
F1232       F  0.87515909  0.44980329  0.12697129    -0.13100
C1233       C  0.86923353  0.26603234  0.10606748     0.24900
C1234       C  0.83983061  0.28314597  0.11204182    -0.23200
C1235       C  0.81508578  0.28124179  0.08617727     0.19800
C1236       C  0.82036709  0.26411875  0.05441723     0.24900
C1237       C  0.85058874  0.24902615  0.04776534    -0.23100
C1238       C  0.87461226  0.24954379  0.07422941     0.19800
F1239       F  0.90348059  0.23395087  0.06932738    -0.13100
F1240       F  0.89338055  0.26580752  0.13074085    -0.15500
F1241       F  0.79656766  0.26385156  0.02937168    -0.15500
F1242       F  0.78647015  0.29735803  0.09063783    -0.13100
C1243       C  0.85257150  0.26931664  0.28571577     0.24900
C1244       C  0.82854844  0.29072087  0.27278157    -0.23200
C1245       C  0.79872257  0.29300048  0.29105451     0.19800
C1246       C  0.79250033  0.27359683  0.32044524     0.24900
C1247       C  0.81587977  0.25115332  0.33281784    -0.23100
C1248       C  0.84632562  0.24964730  0.31538618     0.19800
F1249       F  0.87012222  0.22903959  0.32673735    -0.13100
F1250       F  0.88172204  0.26670860  0.26915658    -0.15500
F1251       F  0.76295110  0.27651893  0.33610413    -0.15500
F1252       F  0.77512981  0.31430023  0.28066186    -0.13100
C1253       C  0.82124125  0.06066683  0.43723563     0.24900
C1254       C  0.81558173  0.03005939  0.42135409    -0.23200
C1255       C  0.78328907  0.02183855  0.41283153     0.19800
C1256       C  0.75862931  0.04532230  0.41384158     0.24900
C1257       C  0.76550764  0.07783166  0.42326271    -0.23100
C1258       C  0.79627429  0.08449526  0.43818155     0.19800
F1259       F  0.80282645  0.11448490  0.45148367    -0.13100
F1260       F  0.85126051  0.06828450  0.44956508    -0.15500
F1261       F  0.72824271  0.03655483  0.40345543    -0.15500
F1262       F  0.77581374  0.99136138  0.40134926    -0.13100
C1263       C  0.81757405  0.42251429  0.29189743     0.24900
C1264       C  0.84235872  0.41921212  0.26646804    -0.23200
C1265       C  0.87224574  0.43513234  0.27260169     0.19800
C1266       C  0.87778156  0.45237164  0.30397014     0.24900
C1267       C  0.85347309  0.45477553  0.32983772    -0.23100
C1268       C  0.82302981  0.44030681  0.32319764     0.19800
F1269       F  0.79907957  0.44193607  0.34781211    -0.13100
F1270       F  0.78871339  0.40708859  0.28749000    -0.15500
F1271       F  0.90701990  0.46698551  0.30888455    -0.15500
F1272       F  0.89659746  0.43363541  0.24842345    -0.13100
C1273       C  0.84249372  0.50933733  0.40777854     0.81500
N1274       N  0.87253485  0.50762466  0.42339552    -0.76800
C1275       C  0.89615741  0.48808721  0.40900393     0.84000
N1276       N  0.89018419  0.97191335  0.37749527    -0.76700
C1277       C  0.86056502  0.97402060  0.36167462     0.84100
N1278       N  0.83674242  0.49173211  0.37784697    -0.78400
O1279       O  0.81139309  0.82017014  0.15126599    -0.73100
O1280       O  0.81286181  0.88904554  0.22184601    -0.73100
O1281       O  0.81372318  0.88534200  0.14937199    -0.73200
O1282       O  0.80819494  0.82382528  0.22317338    -0.73200
O1283       O  0.86203151  0.82134368  0.22831375    -0.73200
O1284       O  0.86787450  0.88175622  0.14933641    -0.73100
O1285       O  0.86695289  0.88658392  0.22171420    -0.73100
O1286       O  0.86521241  0.81653023  0.15613927    -0.73200
Ni1287     Ni  0.80965407  0.85477041  0.18637083     1.25400
Ni1288     Ni  0.86748609  0.85146594  0.18897429     1.25400
C1289       C  0.83864630  0.80744085  0.14167151     0.89100
C1290       C  0.84056837  0.89853327  0.23396052     0.89000
C1291       C  0.84108591  0.89227953  0.13567550     0.89000
C1292       C  0.83350808  0.81330983  0.23912178     0.89200
C1293       C  0.81909310  0.68053242  0.39005450     0.81500
N1294       N  0.82645394  0.70250127  0.36460703    -0.76800
C1295       C  0.80799296  0.72952269  0.35974014     0.84000
N1296       N  0.78146570  0.73424257  0.38062252    -0.76700
C1297       C  0.77333177  0.71223349  0.40603437     0.84100
N1298       N  0.79244760  0.68526738  0.41086648    -0.78400
C1299       C  0.84166331  0.69599312  0.96820364     0.81500
N1300       N  0.83512386  0.71204430  0.99898633    -0.76800
C1301       C  0.85786906  0.73064991  0.01512363     0.84000
N1302       N  0.88756423  0.73360669  0.00008106    -0.76700
C1303       C  0.89479742  0.71790981  0.96942887     0.84100
N1304       N  0.87185248  0.69873625  0.95342396    -0.78400
C1305       C  0.82074769  0.52413625  0.98800261     0.81500
N1306       N  0.79244614  0.51980787  0.96981236    -0.76800
C1307       C  0.77380713  0.49307583  0.97629358     0.84000
N1308       N  0.78547199  0.97063915  0.99850208    -0.76700
C1309       C  0.81397209  0.97524875  0.01634308     0.84100
N1310       N  0.83018404  0.50208189  0.01268411    -0.78400
C1311       C  0.74264437  0.98778647  0.95624898     0.03600
C1312       C  0.71920040  0.51356195  0.95343134     0.03600
C1313       C  0.68818425  0.50622602  0.93969060    -0.16900
C1314       C  0.68084417  0.97400084  0.92523714     0.03600
C1315       C  0.70422050  0.94863282  0.92929935     0.03600
C1316       C  0.73458929  0.95595910  0.94492225    -0.16900
H1317       H  0.75248410  0.93658912  0.94776993     0.05600
H1318       H  0.67030826  0.52570933  0.93769733     0.05600
C1319       C  0.60114605  0.93967985  0.89436202     0.81500
N1320       N  0.62931010  0.94343287  0.91315990    -0.76800
C1321       C  0.64911139  0.96940628  0.90644902     0.84000
N1322       N  0.64007862  0.99151706  0.88132654    -0.76700
C1323       C  0.61193995  0.98807122  0.86269875     0.84500
N1324       N  0.59292082  0.96210862  0.86948060    -0.78400
C1325       C  0.57024117  0.77187283  0.90160507     0.81500
N1326       N  0.57633967  0.75130222  0.87428083    -0.76800
C1327       C  0.55555666  0.72711090  0.86593540     0.84000
N1328       N  0.52784514  0.72359503  0.88499836    -0.76700
C1329       C  0.52139073  0.74373627  0.91285773     0.84100
N1330       N  0.54276875  0.76798152  0.92122125    -0.78400
O1331       O  0.60560893  0.57103804  0.65869737    -0.73100
O1332       O  0.60447606  0.64163629  0.72757888    -0.73100
O1333       O  0.60734214  0.57666339  0.73129204    -0.73200
O1334       O  0.60560487  0.63596603  0.65497730    -0.73200
O1335       O  0.55140109  0.63434553  0.65273527    -0.73200
O1336       O  0.55323795  0.57684843  0.73428644    -0.73100
O1337       O  0.55042586  0.64141211  0.72472400    -0.73100
O1338       O  0.55169788  0.56966967  0.66216192    -0.73200
Ni1339     Ni  0.60772047  0.60636404  0.69314612     1.25400
Ni1340     Ni  0.54976776  0.60551794  0.69347467     1.25400
C1341       C  0.57806793  0.55971450  0.64807914     0.89100
C1342       C  0.57663608  0.65221000  0.73835021     0.89000
C1343       C  0.58119870  0.56861775  0.74696508     0.89000
C1344       C  0.57883195  0.64336864  0.63985933     0.89200
C1345       C  0.57341251  0.93716214  0.48234680     0.81500
N1346       N  0.57947825  0.95864733  0.50883656    -0.76800
C1347       C  0.55839532  0.98293782  0.51644133     0.84000
N1348       N  0.53049142  0.98583504  0.49732489    -0.76700
C1349       C  0.52407601  0.96492520  0.47017731     0.84100
N1350       N  0.54568799  0.94042732  0.46264142    -0.78400
C1351       C  0.60403993  0.77151067  0.48858616     0.81500
N1352       N  0.59357293  0.74914536  0.51202773    -0.76800
C1353       C  0.61075590  0.72188782  0.51918562     0.84000
N1354       N  0.63958456  0.71688999  0.50221184    -0.76700
C1355       C  0.65080521  0.73913511  0.47826044     0.84100
N1356       N  0.63259061  0.76640166  0.47126982    -0.78400
C1357       C  0.95270035  0.70008948  0.95636170     0.03600
C1358       C  0.92729754  0.72334642  0.95371028     0.03600
C1359       C  0.93437377  0.75480840  0.94101235    -0.16900
C1360       C  0.96573078  0.76347326  0.92933253     0.03600
C1361       C  0.99060589  0.73939254  0.92969745     0.03600
C1362       C  0.98383333  0.70834177  0.94379210    -0.16900
H1363       H  0.50201494  0.69136948  0.94843619     0.05600
H1364       H  0.91505638  0.77292235  0.94028327     0.05600
O1365       O  0.80128709  0.83002647  0.72915500    -0.73100
O1366       O  0.86882081  0.83284518  0.65769442    -0.73100
O1367       O  0.86617770  0.83133469  0.73043465    -0.73200
O1368       O  0.80429500  0.82909496  0.65653256    -0.73200
O1369       O  0.80393862  0.88336074  0.65321995    -0.73200
O1370       O  0.86210775  0.88547412  0.73415990    -0.73100
O1371       O  0.86812232  0.88691211  0.66207385    -0.73100
O1372       O  0.79765486  0.88408232  0.72539203    -0.73200
Ni1373     Ni  0.83526238  0.82884270  0.69349982     1.25400
Ni1374     Ni  0.83286662  0.88690810  0.69375999     1.25400
C1375       C  0.78901759  0.85732762  0.73962139     0.89100
C1376       C  0.87819746  0.86102682  0.64686460     0.89000
C1377       C  0.87246766  0.85803166  0.74633219     0.89000
C1378       C  0.79608193  0.85529865  0.64063374     0.89200
C1379       C  0.67095722  0.86729557  0.90290376     0.81500
N1380       N  0.67512086  0.89582762  0.92097244    -0.76800
C1381       C  0.70021685  0.91603559  0.91241704     0.84000
N1382       N  0.72073450  0.90743767  0.88573923    -0.76700
C1383       C  0.71687725  0.87877708  0.86813371     0.84100
N1384       N  0.69190758  0.85912643  0.87667481    -0.78400
C1385       C  0.50022804  0.84345107  0.89888016     0.81500
N1386       N  0.49639275  0.81525734  0.91759623    -0.76800
C1387       C  0.96984814  0.79612495  0.91259302     0.84000
N1388       N  0.94687158  0.80640425  0.88908925    -0.76700
C1389       C  0.94996791  0.83506756  0.87149669     0.84100
N1390       N  0.97658512  0.85335799  0.87763188    -0.78400
C1391       C  0.67515470  0.84095850  0.47993833     0.81500
N1392       N  0.69787386  0.85001266  0.50397095    -0.76800
C1393       C  0.72346594  0.83065767  0.51208715     0.84000
N1394       N  0.72607257  0.80112949  0.49575854    -0.76700
C1395       C  0.70357346  0.79131906  0.47142199     0.84100
N1396       N  0.67808649  0.81155771  0.46332315    -0.78400
C1397       C  0.50314026  0.86687284  0.48797223     0.81500
N1398       N  0.49843398  0.89411277  0.46799823    -0.76800
C1399       C  0.97152597  0.91420214  0.47308847     0.84000
N1400       N  0.95020285  0.90685196  0.49923084    -0.76700
C1401       C  0.95454963  0.87997136  0.51971436     0.84100
N1402       N  0.98066356  0.86052423  0.51391110    -0.78400
C1403       C  0.91874386  0.62138638  0.98892081     0.81500
N1404       N  0.94120939  0.61310451  0.01386661    -0.76800
C1405       C  0.96757829  0.63214730  0.01960513     0.84000
N1406       N  0.97112437  0.65971966  0.00003288    -0.76700
C1407       C  0.94866222  0.66860252  0.97532630     0.84100
N1408       N  0.92228837  0.64928725  0.96981605    -0.78400
C1409       C  0.74588976  0.60000702  0.96670135     0.81500
N1410       N  0.73036885  0.60677715  0.99759695    -0.76800
C1411       C  0.71228270  0.58410710  0.01420283     0.84000
N1412       N  0.70928422  0.55405320  0.99956861    -0.76700
C1413       C  0.72437322  0.54656297  0.96863811     0.84100
N1414       N  0.74311492  0.56953013  0.95217290    -0.78400
O1415       O  0.55819001  0.62801700  0.22317423    -0.73100
O1416       O  0.62687191  0.63176237  0.15289906    -0.73100
O1417       O  0.56168676  0.63059694  0.15056098    -0.73200
O1418       O  0.62339771  0.63164572  0.22508527    -0.73200
O1419       O  0.62514133  0.57742092  0.22650756    -0.73200
O1420       O  0.56418854  0.57632384  0.14752976    -0.73100
O1421       O  0.62941226  0.57753565  0.15438461    -0.73100
O1422       O  0.56015206  0.57387690  0.21974076    -0.73200
Ni1423     Ni  0.59239734  0.63243792  0.18798749     1.25400
Ni1424     Ni  0.59478141  0.57435882  0.18698620     1.25400
C1425       C  0.54854978  0.59977963  0.23363554     0.89100
C1426       C  0.63904917  0.60464715  0.14176909     0.89000
C1427       C  0.55385996  0.60388697  0.13551347     0.89000
C1428       C  0.63387451  0.60527914  0.23903490     0.89200
C1429       C  0.91982617  0.58454196  0.38837944     0.81500
N1430       N  0.92337211  0.55673969  0.40766500    -0.76800
C1431       C  0.94994489  0.53733264  0.40290007     0.84000
N1432       N  0.97285022  0.54615405  0.37887081    -0.76700
C1433       C  0.96937643  0.57380756  0.35924682     0.84100
N1434       N  0.94262401  0.59275631  0.36410239    -0.78400
C1435       C  0.74394291  0.60667879  0.41224178     0.81500
N1436       N  0.74287307  0.63657413  0.42842256    -0.76800
C1437       C  0.72268703  0.66045912  0.41539570     0.84000
N1438       N  0.70434963  0.65443520  0.38606932    -0.76700
C1439       C  0.70559853  0.62495476  0.36971888     0.84100
N1440       N  0.72529248  0.60146328  0.38300170    -0.78400
C1441       C  0.95392782  0.50625746  0.42272879     0.03600
C1442       C  0.92873845  0.98346108  0.42522984     0.03600
C1443       C  0.93585332  0.95301623  0.44061673    -0.16900
C1444       C  0.96719371  0.94522085  0.45345006     0.03600
C1445       C  0.99220405  0.96877641  0.45108548     0.03600
C1446       C  0.98491233  0.49828372  0.43646341    -0.16900
H1447       H  0.50751500  0.52047822  0.43360414     0.05600
H1448       H  0.91668270  0.93507311  0.44258963     0.05600
C1449       C  0.74322451  0.71778021  0.42720626     0.03600
C1450       C  0.71980631  0.69307582  0.43242904     0.03600
C1451       C  0.69004388  0.70125787  0.44877348    -0.16900
C1452       C  0.68274931  0.73329407  0.46029582     0.03600
C1453       C  0.70663282  0.75796922  0.45577575     0.03600
C1454       C  0.73638064  0.74965053  0.43942661    -0.16900
H1455       H  0.75452435  0.76847044  0.43594742     0.05600
H1456       H  0.67182086  0.68242995  0.45166385     0.05600
C1457       C  0.01561416  0.61987179  0.28737752     0.24900
C1458       C  0.52523517  0.59574318  0.26342804    -0.23200
C1459       C  0.51061582  0.56504231  0.26905261     0.19800
C1460       C  0.49281449  0.55888569  0.29972093     0.24900
C1461       C  0.99285387  0.58161927  0.33051643    -0.23100
C1462       C  0.99570090  0.61355932  0.31680782     0.19800
F1463       F  0.97938362  0.63881041  0.33197115    -0.13100
F1464       F  0.01763871  0.65083535  0.27491397    -0.15500
F1465       F  0.47921898  0.52904835  0.30411002    -0.15500
F1466       F  0.51364439  0.54059035  0.24493896    -0.13100
C1467       C  0.66998946  0.63853395  0.27839565     0.24900
C1468       C  0.65503059  0.60832981  0.27094132    -0.23200
C1469       C  0.65769933  0.58313524  0.29613412     0.19800
C1470       C  0.67412988  0.58842897  0.32834373     0.24900
C1471       C  0.68778558  0.61911137  0.33612521    -0.23100
C1472       C  0.68575269  0.64392096  0.31066165     0.19800
F1473       F  0.69972643  0.67337343  0.31660950    -0.13100
F1474       F  0.66934803  0.66323502  0.25443522    -0.15500
F1475       F  0.67561206  0.56391383  0.35247031    -0.15500
F1476       F  0.64335097  0.55385766  0.29033160    -0.13100
C1477       C  0.68093567  0.62173793  0.05435344     0.24900
C1478       C  0.69691075  0.59172761  0.04856140    -0.23200
C1479       C  0.69791327  0.56864165  0.07590038     0.19800
C1480       C  0.68150914  0.57440682  0.10758918     0.24900
C1481       C  0.66296744  0.60315464  0.11241149    -0.23100
C1482       C  0.66386828  0.62734631  0.08597317     0.19800
F1483       F  0.64656787  0.65543563  0.08960981    -0.13100
F1484       F  0.68012812  0.64479895  0.02855724    -0.15500
F1485       F  0.68293602  0.55115750  0.13318098    -0.15500
F1486       F  0.71470602  0.54026188  0.07187095    -0.13100
C1487       C  0.50563334  0.58779706  0.09818678     0.24900
C1488       C  0.53376979  0.60640094  0.10303886    -0.23200
C1489       C  0.54128231  0.63067656  0.07809523     0.19800
C1490       C  0.52022292  0.63759421  0.04994887     0.24900
C1491       C  0.99062868  0.62474338  0.04911528    -0.23100
C1492       C  0.99420437  0.59294350  0.06310135     0.19800
F1493       F  0.97817473  0.56746709  0.04823548    -0.13100
F1494       F  0.01743866  0.55619822  0.10522648    -0.15500
F1495       F  0.52870500  0.66144581  0.02686844    -0.15500
F1496       F  0.56901806  0.64829866  0.08138275    -0.13100
C1497       C  0.91249726  0.83817556  0.59692094     0.24900
C1498       C  0.89866253  0.86502111  0.61473921    -0.23200
C1499       C  0.90197276  0.89639645  0.59958786     0.19800
C1500       C  0.91909349  0.90085678  0.56827018     0.24900
C1501       C  0.93371073  0.87426675  0.55101324    -0.23100
C1502       C  0.92999944  0.84278152  0.56545960     0.19800
F1503       F  0.94286685  0.81633017  0.54884690    -0.13100
F1504       F  0.90902341  0.80746718  0.60970835    -0.15500
F1505       F  0.92202277  0.93166691  0.55550513    -0.15500
F1506       F  0.88817787  0.92323270  0.61456367    -0.13100
C1507       C  0.91372722  0.87796894  0.79071514     0.24900
C1508       C  0.88993515  0.85555394  0.78040845    -0.23200
C1509       C  0.88320261  0.82886038  0.80257702     0.19800
C1510       C  0.90149607  0.82317353  0.83306340     0.24900
C1511       C  0.92715386  0.84413262  0.84234252    -0.23100
C1512       C  0.93227552  0.87235642  0.82140349     0.19800
F1513       F  0.95591247  0.89408543  0.82970572    -0.13100
F1514       F  0.92019883  0.90430950  0.77019881    -0.15500
F1515       F  0.89449402  0.79638687  0.85268785    -0.15500
F1516       F  0.85887252  0.80779492  0.79448791    -0.13100
C1517       C  0.74959573  0.88924017  0.77609602     0.24900
C1518       C  0.76662578  0.85969856  0.77031332    -0.23200
C1519       C  0.76600048  0.83560579  0.79693218     0.19800
C1520       C  0.74987234  0.84166545  0.82907457     0.24900
C1521       C  0.73497786  0.87210827  0.83532647    -0.23100
C1522       C  0.73449065  0.89549801  0.80836366     0.19800
F1523       F  0.71864356  0.92434279  0.81297672    -0.13100
F1524       F  0.74798908  0.91263423  0.75067099    -0.15500
F1525       F  0.74975498  0.81829523  0.85454712    -0.15500
F1526       F  0.78210252  0.80689067  0.79260043    -0.13100
C1527       C  0.75614833  0.87423913  0.59417717     0.24900
C1528       C  0.77948519  0.85178450  0.60607332    -0.23200
C1529       C  0.78735157  0.82479901  0.58447773     0.19800
C1530       C  0.77052306  0.81895561  0.55299019     0.24900
C1531       C  0.74514818  0.83987179  0.54222874    -0.23100
C1532       C  0.73906366  0.86841266  0.56259193     0.19800
F1533       F  0.71591841  0.89038861  0.55278824    -0.13100
F1534       F  0.74880856  0.90102422  0.61384664    -0.15500
F1535       F  0.77884187  0.79230145  0.53357450    -0.15500
F1536       F  0.81157391  0.80380590  0.59385411    -0.13100
C1537       C  0.54857789  0.83830273  0.51802277     0.24900
C1538       C  0.53362181  0.84773928  0.48610800    -0.23200
C1539       C  0.54664052  0.83652654  0.45379104     0.19800
C1540       C  0.57222562  0.81351544  0.45379739     0.24900
C1541       C  0.58502668  0.80203388  0.48609627    -0.23100
C1542       C  0.57407510  0.81595733  0.51798361     0.19800
F1543       F  0.58719947  0.80666393  0.54953507    -0.13100
F1544       F  0.53788647  0.85012211  0.54959159    -0.15500
F1545       F  0.58260583  0.80063174  0.42265664    -0.15500
F1546       F  0.02849877  0.84426673  0.42152987    -0.13100
C1547       C  0.63117044  0.87076698  0.51038704     0.24900
C1548       C  0.64513348  0.86087215  0.47817091    -0.23200
C1549       C  0.63252814  0.87344619  0.44622234     0.19800
C1550       C  0.60756930  0.89720241  0.44686255     0.24900
C1551       C  0.59522079  0.90844456  0.47946013    -0.23100
C1552       C  0.60656966  0.89408446  0.51103213     0.19800
F1553       F  0.59415139  0.90307810  0.54294508    -0.13100
F1554       F  0.64191945  0.85822305  0.54167823    -0.15500
F1555       F  0.59713607  0.91074193  0.41602096    -0.15500
F1556       F  0.64581180  0.86447394  0.41480130    -0.13100
C1557       C  0.57620489  0.71138841  0.57314429     0.24900
C1558       C  0.59895504  0.69991970  0.54769687    -0.23200
C1559       C  0.61080396  0.66785135  0.55079892     0.19800
C1560       C  0.60204937  0.64867733  0.57980033     0.24900
C1561       C  0.58118382  0.66103892  0.60614641    -0.23100
C1562       C  0.56749539  0.69204194  0.60207977     0.19800
F1563       F  0.54764079  0.70453992  0.62743171    -0.13100
F1564       F  0.56359146  0.74201729  0.57141158    -0.15500
F1565       F  0.61482418  0.61817936  0.58285899    -0.15500
F1566       F  0.63125751  0.65513863  0.52615900    -0.13100
C1567       C  0.60183120  0.52957184  0.59530281     0.24900
C1568       C  0.57517506  0.53694264  0.61734730    -0.23200
C1569       C  0.54404735  0.52561948  0.60709991     0.19800
C1570       C  0.53947851  0.50911723  0.57516994     0.24900
C1571       C  0.56581936  0.50261168  0.55277880    -0.23100
C1572       C  0.59721005  0.51223433  0.56349976     0.19800
F1573       F  0.62327784  0.50581535  0.54259837    -0.13100
F1574       F  0.63217240  0.53991055  0.60383703    -0.15500
F1575       F  0.50911380  0.49880851  0.56656844    -0.15500
F1576       F  0.51745371  0.53092080  0.62760115    -0.13100
C1577       C  0.60721851  0.80860291  0.93719817     0.24900
C1578       C  0.59133456  0.80070413  0.90524591    -0.23200
C1579       C  0.59907050  0.81802725  0.87433606     0.19800
C1580       C  0.62358375  0.84122642  0.87465571     0.24900
C1581       C  0.64101876  0.84783092  0.90590859    -0.23100
C1582       C  0.63206481  0.83215789  0.93752378     0.19800
F1583       F  0.64901104  0.83770053  0.96784791    -0.13100
F1584       F  0.60056253  0.79175416  0.96721712    -0.15500
F1585       F  0.63106361  0.85663987  0.84389253    -0.15500
F1586       F  0.58340195  0.81173407  0.84329691    -0.13100
C1587       C  0.59227420  0.69475492  0.82627353     0.24900
C1588       C  0.56135621  0.70801544  0.83342966    -0.23200
C1589       C  0.53682463  0.70565639  0.80773242     0.19800
C1590       C  0.54280781  0.68981837  0.77563403     0.24900
C1591       C  0.57330572  0.67497195  0.76885549    -0.23100
C1592       C  0.59813447  0.67802177  0.79444571     0.19800
F1593       F  0.62757270  0.66363075  0.78949761    -0.13100
F1594       F  0.61649987  0.69707114  0.85069464    -0.15500
F1595       F  0.51835093  0.68869203  0.75135571    -0.15500
F1596       F  0.50717350  0.71946294  0.81330588    -0.13100
C1597       C  0.56670256  0.89776796  0.86590677     0.24900
C1598       C  0.58026086  0.91037946  0.89728592    -0.23200
C1599       C  0.57061495  0.89700343  0.93000523     0.19800
C1600       C  0.54578846  0.87330062  0.93115902     0.24900
C1601       C  0.53059462  0.86286673  0.89959007    -0.23100
C1602       C  0.54237604  0.87446259  0.86703965     0.19800
F1603       F  0.52981920  0.86356382  0.83585007    -0.13100
F1604       F  0.57669831  0.90846210  0.83367468    -0.15500
F1605       F  0.03271745  0.86565667  0.96495003    -0.15500
F1606       F  0.58355304  0.90835930  0.96074979    -0.13100
C1607       C  0.57191281  0.01028762  0.81734816     0.24900
C1608       C  0.59790779  0.51309827  0.84208139    -0.23200
C1609       C  0.61808107  0.53941594  0.83308295     0.19800
C1610       C  0.61161913  0.55798282  0.80290861     0.24900
C1611       C  0.58471345  0.55102483  0.78095419    -0.23100
C1612       C  0.56297543  0.52669014  0.79126970     0.19800
F1613       F  0.53637553  0.52002074  0.77116345    -0.13100
F1614       F  0.54797193  0.99120318  0.83055465    -0.15500
F1615       F  0.63210932  0.58278856  0.79495937    -0.15500
F1616       F  0.64475648  0.54686856  0.85275843    -0.13100
C1617       C  0.86430656  0.60220884  0.00792555     0.24900
C1618       C  0.89029082  0.60036047  0.98396998    -0.23200
C1619       C  0.89078052  0.57561818  0.95821558     0.19800
C1620       C  0.86639137  0.55190839  0.95763120     0.24900
C1621       C  0.84126716  0.55285775  0.98271009    -0.23100
C1622       C  0.83991499  0.57855042  0.00730366     0.19800
F1623       F  0.81592839  0.57962424  0.03192145    -0.13100
F1624       F  0.86343409  0.62604243  0.03293255    -0.15500
F1625       F  0.86833871  0.52692417  0.93406538    -0.15500
F1626       F  0.91584318  0.57341639  0.93500528    -0.13100
C1627       C  0.75919748  0.65862835  0.95919140     0.24900
C1628       C  0.76732604  0.62588979  0.95208675    -0.23200
C1629       C  0.79853850  0.61901523  0.93864635     0.19800
C1630       C  0.82281523  0.64325927  0.93933154     0.24900
C1631       C  0.81586584  0.67436015  0.95349090    -0.23100
C1632       C  0.78316683  0.68252082  0.96001810     0.19800
F1633       F  0.77472345  0.71324216  0.97003727    -0.13100
F1634       F  0.72839400  0.66704738  0.96849083    -0.15500
F1635       F  0.85341650  0.63559964  0.92887891    -0.15500
F1636       F  0.80620364  0.58847276  0.92757854    -0.13100
C1637       C  0.86266718  0.64979120  0.42194597     0.24900
C1638       C  0.84034383  0.65180730  0.39374578    -0.23200
C1639       C  0.84274292  0.62965168  0.36542587     0.19800
C1640       C  0.86780876  0.60650464  0.36467848     0.24900
C1641       C  0.89084066  0.60529097  0.39217921    -0.23100
C1642       C  0.88782007  0.62659016  0.42117473     0.19800
F1643       F  0.91021317  0.62602550  0.44770920    -0.13100
F1644       F  0.86127570  0.67157592  0.44903284    -0.15500
F1645       F  0.87046393  0.58614199  0.33639911    -0.15500
F1646       F  0.82172130  0.63157806  0.33763970    -0.13100
C1647       C  0.81809519  0.90087489  0.07586088     0.24900
C1648       C  0.84000261  0.91094505  0.10237167    -0.23200
C1649       C  0.85627387  0.94059401  0.09851042     0.19800
C1650       C  0.84893369  0.96103885  0.06971488     0.24900
C1651       C  0.82510723  0.95198265  0.04427222    -0.23100
C1652       C  0.81078667  0.92101655  0.04711939     0.19800
F1653       F  0.78900123  0.91034248  0.02263454    -0.13100
F1654       F  0.80277178  0.87170775  0.07852299    -0.15500
F1655       F  0.86394041  0.99040292  0.06805292    -0.15500
F1656       F  0.87743447  0.95082447  0.12384839    -0.13100
C1657       C  0.87023214  0.76633806  0.10640389     0.24900
C1658       C  0.84077396  0.78340732  0.11213549    -0.23200
C1659       C  0.81558564  0.78014405  0.08693726     0.19800
C1660       C  0.82054665  0.76188932  0.05585985     0.24900
C1661       C  0.85087867  0.74701332  0.04925118    -0.23100
C1662       C  0.87524732  0.74866553  0.07528783     0.19800
F1663       F  0.90421511  0.73320473  0.07056804    -0.13100
F1664       F  0.89483786  0.76736477  0.13050017    -0.15500
F1665       F  0.79633975  0.76038959  0.03134268    -0.15500
F1666       F  0.78681681  0.79600633  0.09129895    -0.13100
C1667       C  0.85325393  0.77316497  0.28559298     0.24900
C1668       C  0.82836429  0.79258631  0.27091949    -0.23200
C1669       C  0.79738193  0.79224640  0.28704531     0.19800
C1670       C  0.79114541  0.77238267  0.31609655     0.24900
C1671       C  0.81565995  0.75232409  0.33035185    -0.23100
C1672       C  0.84699035  0.75322424  0.31501056     0.19800
F1673       F  0.87170715  0.73487711  0.32843326    -0.13100
F1674       F  0.88343881  0.77289007  0.27114755    -0.15500
F1675       F  0.76051828  0.77218149  0.32941866    -0.15500
F1676       F  0.77261953  0.81127016  0.27484845    -0.13100
C1677       C  0.82238400  0.56200574  0.43632707     0.24900
C1678       C  0.81605462  0.53144202  0.42064818    -0.23200
C1679       C  0.78361955  0.52384361  0.41210700     0.19800
C1680       C  0.75939786  0.54772545  0.41332626     0.24900
C1681       C  0.76681284  0.58002195  0.42309782    -0.23100
C1682       C  0.79783095  0.58622094  0.43755593     0.19800
F1683       F  0.80491135  0.61607161  0.45088075    -0.13100
F1684       F  0.85259930  0.56907557  0.44845769    -0.15500
F1685       F  0.72886913  0.53952849  0.40286812    -0.15500
F1686       F  0.77550698  0.49354155  0.40060425    -0.13100
C1687       C  0.81874606  0.92393666  0.29000369     0.24900
C1688       C  0.84316069  0.92190967  0.26402009    -0.23200
C1689       C  0.87247776  0.93895156  0.26969100     0.19800
C1690       C  0.87791324  0.95604359  0.30123696     0.24900
C1691       C  0.85406161  0.95698464  0.32772800    -0.23100
C1692       C  0.82408493  0.94148457  0.32145968     0.19800
F1693       F  0.80058807  0.94175831  0.34663934    -0.13100
F1694       F  0.79051797  0.90728462  0.28606881    -0.15500
F1695       F  0.90657093  0.97185092  0.30579143    -0.15500
F1696       F  0.89634060  0.93860749  0.24490120    -0.13100
loop_ 
_geom_bond_atom_site_label_1 
_geom_bond_atom_site_label_2 
_geom_bond_distance 
_geom_bond_site_symmetry_2 
_ccdc_geom_bond_type 
C1            N2   1.369       .  A
C1            N6   1.359   1_545  A
C1          C406   1.496       .  S
N2            C3   1.371   1_545  A
C3          N428   1.359       .  A
C3          C594   1.486       .  S
N4            C5   1.357       .  A
N4          C427   1.358       .  A
C5          N430   1.353       .  A
C5          C419   1.483       .  S
N6          C429   1.352       .  A
O7          Ni15   1.946       .  S
O7           C17   1.288       .  A
O8          Ni15   1.947       .  S
O8           C18   1.289       .  A
O9          Ni15   1.883       .  S
O9           C19   1.273       .  A
O10         Ni15   1.885       .  S
O10          C20   1.274       .  A
O11         Ni16   1.952       .  S
O11          C20   1.289       .  A
O12         Ni16   1.948       .  S
O12          C19   1.288       .  A
O13         Ni16   1.893       .  S
O13          C18   1.275       .  A
O14         Ni16   1.895       .  S
O14          C17   1.276       .  A
Ni15        Ni16   2.383       .  S
C17         C386   1.494       .  S
C18         C416   1.490       .  S
C19         C376   1.471       .  S
C20         C396   1.486       .  S
C21          N22   1.354       .  A
C21          N26   1.360       .  A
C21         C366   1.462       .  S
N22          C23   1.353       .  A
C23          N24   1.363       .  A
C23         C399   1.497       .  S
N24          C25   1.363       .  A
C25          N26   1.361       .  A
C25         C177   1.490       .  S
C27          N28   1.361   1_556  A
C27          N32   1.369       .  A
C27         C359   1.498       .  S
N28          C29   1.353       .  A
C29          N30   1.356   1_554  A
C29         C389   1.485       .  S
N30          C31   1.358       .  A
C31          N32   1.371       .  A
C31          C86   1.487       .  S
C33          N34   1.359       .  A
C33          N38   1.354   1_556  A
C33         C349   1.465       .  S
N34          C35   1.362   1_545  A
C35         N460   1.363       .  A
C35         C463   1.489       .  S
N36          C37   1.365       .  A
N36         C459   1.365   1_554  A
C37         N462   1.352       .  A
C37         C379   1.489       .  S
N38         C461   1.353   1_545  A
C39         C459   1.492       .  S
C39          C44   1.413       .  A
C39         C464   1.416       .  A
C40         C141   1.491       .  S
C40          C41   1.411       .  A
C40         C463   1.416   1_545  A
C41         C466   1.415   1_545  A
C41          H46   1.085       .  S
C42          C49   1.495       .  S
C42          C43   1.421       .  A
C42         C465   1.413       .  A
C43         C109   1.490       .  S
C43          C44   1.414       .  A
C44          H45   1.085       .  S
C47          N48   1.364       .  A
C47          N52   1.354       .  A
C47         C326   1.482       .  S
N48          C49   1.368       .  A
C49          N50   1.361       .  A
N50          C51   1.359       .  A
C51          N52   1.349       .  A
C51         C760   1.488       .  S
C53          N54   1.355       .  A
C53          N58   1.364       .  A
C53         C306   1.482       .  S
N54          C55   1.350       .  A
C55          N56   1.359       .  A
C55         C316   1.478       .  S
N56          C57   1.361       .  A
C57          N58   1.367       .  A
C57         C937   1.487   1_455  S
O59         Ni67   1.941       .  S
O59          C69   1.288       .  A
O60         Ni67   1.943       .  S
O60          C70   1.288       .  A
O61         Ni67   1.879       .  S
O61          C71   1.273       .  A
O62         Ni67   1.880       .  S
O62          C72   1.272       .  A
O63         Ni68   1.947       .  S
O63          C72   1.288       .  A
O64         Ni68   1.948       .  S
O64          C71   1.288       .  A
O65         Ni68   1.887       .  S
O65          C70   1.274       .  A
O66         Ni68   1.884       .  S
O66          C69   1.274       .  A
Ni67        Ni68   2.383       .  S
C69         C296   1.485       .  S
C70         C319   1.489       .  S
C71         C339   1.480       .  S
C72         C289   1.472       .  S
C73          N74   1.356       .  A
C73          N78   1.362       .  A
C73         C279   1.475       .  S
N74          C75   1.350       .  A
C75          N76   1.359       .  A
C75         C723   1.474       .  S
N76          C77   1.361       .  A
C77          N78   1.365       .  A
C77        C1021   1.483   1_455  S
C79          N80   1.348       .  A
C79          N84   1.364       .  A
C79         C269   1.478       .  S
N80          C81   1.344       .  A
C81          N82   1.362       .  A
C81         C286   1.490       .  S
N82          C83   1.367       .  A
C83          N84   1.371       .  A
C83         C180   1.500       .  S
C85         C135   1.493       .  S
C85          C86   1.418       .  A
C85          C90   1.411       .  A
C86          C87   1.412       .  A
C87          C88   1.412       .  A
C87          H92   1.085       .  S
C88         C115   1.498       .  S
C88          C89   1.421       .  A
C89         C905   1.486       .  S
C89          C90   1.411       .  A
C90         H939   1.085       .  S
H91         C938   1.084   1_455  S
O93        Ni101   1.945       .  S
O93         C103   1.289       .  A
O94        Ni101   1.950       .  S
O94         C104   1.289       .  A
O95        Ni101   1.882       .  S
O95         C105   1.272       .  A
O96        Ni101   1.883       .  S
O96         C106   1.273       .  A
O97        Ni102   1.951       .  S
O97         C106   1.289       .  A
O98        Ni102   1.951       .  S
O98         C105   1.289       .  A
O99        Ni102   1.882       .  S
O99         C104   1.273       .  A
O100       Ni102   1.881       .  S
O100        C103   1.273       .  A
Ni101      Ni102   2.381       .  S
C103        C246   1.488       .  S
C104        C226   1.490       .  S
C105        C236   1.471       .  S
C106        C256   1.493       .  S
C107        N108   1.365       .  A
C107        N112   1.353       .  A
C107        C309   1.480       .  S
N108        C109   1.369       .  A
C109        N110   1.362       .  A
N110        C111   1.359       .  A
C111        N112   1.347       .  A
C111        C249   1.473       .  S
C113        N114   1.362   1_455  A
C113        N966   1.354   1_455  A
C113        C329   1.484       .  S
N114        C963   1.368       .  A
C115        N116   1.367       .  A
C115        N962   1.368       .  A
N116        C117   1.364       .  A
C117        N118   1.350       .  A
C117        C239   1.490       .  S
N118        C961   1.352       .  A
C119        N120   1.356       .  A
C119        N124   1.361       .  A
C119        C276   1.472       .  S
N120        C121   1.350       .  A
C121        N122   1.360       .  A
C121        C259   1.482       .  S
N122        C123   1.361       .  A
C123        N124   1.364       .  A
C123        C181   1.486       .  S
C125        N126   1.363       .  A
C125        N978   1.359       .  A
C125        C266   1.483   1_655  S
N126        C975   1.365       .  A
C127        N128   1.360       .  A
C127        N974   1.365       .  A
C127        C172   1.486       .  S
N128        C129   1.359       .  A
C129        N130   1.352       .  A
C129        C229   1.479       .  S
N130        C973   1.357       .  A
C131        N132   1.353   1_556  A
C131        N136   1.359       .  A
C131        C346   1.466       .  S
N132        C133   1.354       .  A
C133        N134   1.365   1_554  A
C133        C219   1.497       .  S
N134        C135   1.365       .  A
C135        N136   1.362       .  A
C137        N138   1.358       .  A
C137        N142   1.371       .  A
C137        C356   1.498       .  S
N138        C139   1.350   1_556  A
C139        N140   1.356   1_554  A
C139        C206   1.479       .  S
N140        C141   1.360       .  A
C141        N142   1.374       .  A
O143       Ni151   1.950       .  S
O143        C153   1.289       .  A
O144       Ni151   1.948       .  S
O144        C154   1.289       .  A
O145       Ni151   1.887       .  S
O145        C155   1.274       .  A
O146       Ni151   1.888       .  S
O146        C156   1.274       .  A
O147       Ni152   1.948       .  S
O147        C156   1.289       .  A
O148       Ni152   1.949       .  S
O148        C155   1.288       .  A
O149       Ni152   1.887       .  S
O149        C154   1.274       .  A
O150       Ni152   1.883       .  S
O150        C153   1.273       .  A
Ni151      Ni152   2.382       .  S
C153        C186   1.491       .  S
C154        C209   1.488       .  S
C155        C216   1.476       .  S
C156        C196   1.490       .  S
C157        N158   1.358       .  A
C157        N162   1.356       .  A
C157        C369   1.462       .  S
N158        C159   1.360       .  A
C159        N160   1.360       .  A
C159        C169   1.480       .  S
N160        C161   1.361       .  A
C161        N162   1.354       .  A
C161        C189   1.481       .  S
C163        N164   1.370       .  A
C163        N168   1.360       .  A
C163        C409   1.496       .  S
N164        C165   1.371       .  A
C165        N166   1.357       .  A
C165        C178   1.484       .  S
N166        C167   1.354       .  A
C167        N168   1.351       .  A
C167        C199   1.481       .  S
C169        C174   1.409   1_545  A
C169        C594   1.414   1_545  A
C170        C427   1.480       .  S
C170        C171   1.406       .  A
C170        C593   1.415       .  A
C171        C172   1.407       .  A
C171        H176   1.084       .  S
C172        C173   1.417       .  A
C173        C925   1.483       .  S
C173        C598   1.409       .  A
C174        C597   1.408       .  A
C174       H1023   1.084   1_565  S
H175       C1022   1.084   1_445  S
C177        C178   1.416       .  A
C177        C182   1.410       .  A
C178        C179   1.410       .  A
C179        C180   1.412       .  A
C179        H184   1.085       .  S
C180        C181   1.423       .  A
C181        C182   1.411       .  A
C182        H183   1.085       .  S
C185        C190   1.406       .  A
C185       C1034   1.409       .  A
C185        F192   1.357       .  S
C186        C187   1.416       .  A
C186       C1033   1.409       .  A
C187        C188   1.392   1_455  A
C187        F194   1.358       .  S
C188       C1037   1.400       .  A
C188        F193   1.359       .  S
C189        C190   1.410       .  A
C189       C1036   1.401       .  A
C190        F191   1.358       .  S
C195        C196   1.414       .  A
C195        C200   1.394       .  A
C195        F202   1.358       .  S
C196        C197   1.408       .  A
C197        C198   1.405       .  A
C197        F204   1.357       .  S
C198        C199   1.410       .  A
C198        F203   1.357       .  S
C199        C200   1.402       .  A
C200        F201   1.359       .  S
C205        C206   1.409       .  A
C205        C210   1.404       .  A
C205        F212   1.358       .  S
C206        C207   1.401       .  A
C207        C208   1.396       .  A
C207        F214   1.358       .  S
C208        C209   1.414       .  A
C208        F213   1.358       .  S
C209        C210   1.408       .  A
C210        F211   1.357       .  S
C215        C216   1.399       .  A
C215       C1068   1.404   1_455  A
C215       F1070   1.358   1_455  S
C216        C217   1.407       .  A
C217        C218   1.397       .  A
C217        F224   1.358       .  S
C218       C1067   1.407   1_455  A
C218        F223   1.358       .  S
C219        C220   1.421       .  A
C219       C1066   1.408       .  A
C220       C1063   1.406       .  A
C220        F221   1.358       .  S
F222       C1063   1.358       .  S
C225        C226   1.408       .  A
C225        C230   1.405       .  A
C225        F232   1.357       .  S
C226        C227   1.416       .  A
C227        C228   1.393       .  A
C227        F234   1.359       .  S
C228        C229   1.401       .  A
C228        F233   1.359       .  S
C229        C230   1.410       .  A
C230        F231   1.358       .  S
C235        C236   1.397       .  A
C235        C240   1.401       .  A
C235        F242   1.358       .  S
C236        C237   1.409       .  A
C237        C238   1.399       .  A
C237        F244   1.358       .  S
C238        C239   1.405       .  A
C238        F243   1.358       .  S
C239        C240   1.419       .  A
C240        F241   1.357       .  S
C245        C246   1.417       .  A
C245        C250   1.393       .  A
C245        F252   1.359       .  S
C246        C247   1.408       .  A
C247        C248   1.403       .  A
C247        F254   1.357       .  S
C248        C249   1.408       .  A
C248        F253   1.358       .  S
C249        C250   1.399       .  A
C250        F251   1.359       .  S
C255        C256   1.409       .  A
C255        C260   1.406       .  A
C255        F262   1.357       .  S
C256        C257   1.417       .  A
C257        C258   1.393       .  A
C257        F264   1.358       .  S
C258        C259   1.401       .  A
C258        F263   1.358       .  S
C259        C260   1.411       .  A
C260        F261   1.358       .  S
C265        C266   1.404       .  A
C265        C270   1.388       .  A
C265        F272   1.359       .  S
C266        C267   1.411       .  A
C267        C268   1.412       .  A
C267       F1122   1.357       .  S
C268        C269   1.407       .  A
C268        F273   1.357       .  S
C269        C270   1.406       .  A
C270        F271   1.359       .  S
F274       C1115   1.357       .  S
C275        C276   1.402       .  A
C275        C280   1.387       .  A
C275        F282   1.359       .  S
C276        C277   1.407       .  A
C277        C278   1.410       .  A
C277        F284   1.357       .  S
C278        C279   1.408       .  A
C278        F283   1.357       .  S
C279        C280   1.404       .  A
C280        F281   1.359       .  S
C285        C286   1.422       .  A
C285        C290   1.400       .  A
C285        F292   1.358       .  S
C286        C287   1.404       .  A
C287        C288   1.396       .  A
C287        F294   1.358       .  S
C288        C289   1.410       .  A
C288        F293   1.358       .  S
C289        C290   1.395       .  A
C290        F291   1.358       .  S
C295        C296   1.409       .  A
C295        C300   1.403       .  A
C295        F302   1.357       .  S
C296        C297   1.414       .  A
C297        C298   1.393       .  A
C297        F304   1.359       .  S
C298        C299   1.399       .  A
C298        F303   1.359   1_545  S
C299        C499   1.472   1_545  S
C299        C300   1.407       .  A
C300        F301   1.358       .  S
C305        C306   1.409       .  A
C305        C310   1.412       .  A
C305        F312   1.356       .  S
C306        C307   1.406       .  A
C307        C308   1.389       .  A
C307        F314   1.359       .  S
C308        C309   1.406       .  A
C308        F313   1.359       .  S
C309        C310   1.407       .  A
C310        F311   1.356       .  S
C315        C316   1.408       .  A
C315        C320   1.402       .  A
C315        F322   1.358       .  S
C316        C317   1.401       .  A
C317        C318   1.396       .  A
C317        F324   1.359       .  S
C318        C319   1.417       .  A
C318        F323   1.358       .  S
C319        C320   1.408       .  A
C320        F321   1.357       .  S
C325        C326   1.405       .  A
C325        C330   1.388       .  A
C325        F332   1.359       .  S
C326        C327   1.409       .  A
C327        C328   1.413       .  A
C327        F334   1.357       .  S
C328        C329   1.410       .  A
C328       F1181   1.357       .  S
C329        C330   1.405       .  A
C330        F331   1.358       .  S
F333       C1176   1.357       .  S
C335        C760   1.417       .  A
C335        C764   1.403       .  A
C335        F342   1.358       .  S
C336        C475   1.494   1_545  S
C336        C337   1.407       .  A
C336        C759   1.420       .  A
C337        C338   1.393       .  A
C337        F344   1.358       .  S
C338        C339   1.411       .  A
C338        F343   1.359       .  S
C339        C340   1.400       .  A
C340        C759   1.404       .  A
C340        F341   1.358       .  S
C345        C346   1.403   1_554  A
C345        C350   1.397       .  A
C345        F352   1.358       .  S
C346        C347   1.405       .  A
C347        C348   1.401       .  A
C347        F354   1.358       .  S
C348        C349   1.404       .  A
C348        F353   1.358       .  S
C349        C350   1.403   1_556  A
C350        F351   1.358       .  S
C355        C356   1.409       .  A
C355        C360   1.394       .  A
C355        F362   1.358       .  S
C356        C357   1.410       .  A
C357        C358   1.416       .  A
C357        F364   1.355       .  S
C358        C359   1.411       .  A
C358        F363   1.355       .  S
C359        C360   1.407       .  A
C360        F361   1.358       .  S
C365        C366   1.404       .  A
C365        C370   1.400       .  A
C365        F372   1.358       .  S
C366        C367   1.402       .  A
C367        C368   1.396       .  A
C367        F374   1.358       .  S
C368        C369   1.403       .  A
C368        F373   1.358       .  S
C369        C370   1.403       .  A
C370        F371   1.358       .  S
C375        C376   1.407       .  A
C375        C380   1.396       .  A
C375        F382   1.359       .  S
C376        C377   1.399       .  A
C377        C378   1.403       .  A
C377        F384   1.358       .  S
C378        C379   1.419       .  A
C378        F383   1.358       .  S
C379        C380   1.406       .  A
C380        F381   1.358       .  S
C385        C386   1.414       .  A
C385        C390   1.396       .  A
C385        F392   1.358       .  S
C386        C387   1.410       .  A
C387        C388   1.406       .  A
C387        F394   1.357       .  S
C388        C389   1.410       .  A
C388        F393   1.357       .  S
C389        C390   1.403       .  A
C390        F391   1.358       .  S
C395        C396   1.403       .  A
C395        C400   1.407       .  A
C395        F402   1.358       .  S
C396        C397   1.411       .  A
C397        C398   1.393       .  A
C397        F404   1.359       .  S
C398        C399   1.407       .  A
C398        F403   1.358       .  S
C399        C400   1.420       .  A
C400        F401   1.358       .  S
C405        C406   1.411       .  A
C405        C410   1.414       .  A
C405        F412   1.356       .  S
C406        C407   1.408       .  A
C407        C408   1.394       .  A
C407        F414   1.358   1_545  S
C408        C409   1.409       .  A
C408        F413   1.358       .  S
C409        C410   1.411       .  A
C410        F411   1.356       .  S
C415        C416   1.408       .  A
C415        C420   1.404       .  A
C415        F422   1.357       .  S
C416        C417   1.414       .  A
C417        C418   1.397       .  A
C417        F424   1.358       .  S
C418        C419   1.403       .  A
C418        F423   1.359       .  S
C419        C420   1.410       .  A
C420        F421   1.357       .  S
C425        N426   1.366       .  A
C425        N430   1.359       .  A
C425        C830   1.489       .  S
N426        C427   1.367       .  A
N428        C429   1.357       .  A
C429        C843   1.481       .  S
O431       Ni439   1.949       .  S
O431        C441   1.289       .  A
O432       Ni439   1.949       .  S
O432        C442   1.289       .  A
O433       Ni439   1.886       .  S
O433        C443   1.274       .  A
O434       Ni439   1.884       .  S
O434        C444   1.273       .  A
O435       Ni440   1.948       .  S
O435        C444   1.289       .  A
O436       Ni440   1.948       .  S
O436        C443   1.288       .  A
O437       Ni440   1.892       .  S
O437        C442   1.275       .  A
O438       Ni440   1.890       .  S
O438        C441   1.275       .  A
Ni439      Ni440   2.382       .  S
C441        C810   1.491       .  S
C442        C840   1.488       .  S
C443        C800   1.474       .  S
C444        C820   1.491       .  S
C445        N446   1.354       .  A
C445        N450   1.364       .  A
C445        C790   1.470       .  S
N446        C447   1.352       .  A
C447        N448   1.360       .  A
C447        C823   1.479       .  S
N448        C449   1.362       .  A
C449        N450   1.366       .  A
C449        C601   1.491       .  S
C451        N452   1.361       .  A
C451        N456   1.370       .  A
C451        C783   1.494       .  S
N452        C453   1.353   1_556  A
C453        N454   1.356   1_554  A
C453        C813   1.481       .  S
N454        C455   1.357       .  A
C455        N456   1.371       .  A
C455        C510   1.488       .  S
C457        N458   1.359       .  A
C457        N462   1.351   1_556  A
C457        C773   1.465       .  S
N458        C459   1.364       .  A
N460        C461   1.363   1_556  A
C461        C803   1.492       .  S
C463        C468   1.412       .  A
C464        C565   1.486       .  S
C464        C465   1.408       .  A
C465        H470   1.085       .  S
C466        C473   1.494       .  S
C466        C467   1.422       .  A
C467        C533   1.492       .  S
C467        C468   1.412       .  A
C468        H469   1.085       .  S
C471        N472   1.363       .  A
C471        N476   1.354       .  A
C471        C750   1.481       .  S
N472        C473   1.367       .  A
C473        N474   1.363       .  A
N474        C475   1.361       .  A
C475        N476   1.350       .  A
C477        N478   1.357       .  A
C477        N482   1.363       .  A
C477        C730   1.479       .  S
N478        C479   1.351       .  A
C479        N480   1.357       .  A
C479        C740   1.478       .  S
N480        C481   1.360       .  A
C481        N482   1.366       .  A
C481       C1361   1.484   1_455  S
O483       Ni491   1.941       .  S
O483        C493   1.287       .  A
O484       Ni491   1.943       .  S
O484        C494   1.288       .  A
O485       Ni491   1.882       .  S
O485        C495   1.273       .  A
O486       Ni491   1.882       .  S
O486        C496   1.273       .  A
O487       Ni492   1.944       .  S
O487        C496   1.287       .  A
O488       Ni492   1.944       .  S
O488        C495   1.288       .  A
O489       Ni492   1.892       .  S
O489        C494   1.275       .  A
O490       Ni492   1.894       .  S
O490        C493   1.276       .  A
Ni491      Ni492   2.383       .  S
C493        C720   1.489       .  S
C494        C743   1.490       .  S
C495        C763   1.484       .  S
C496        C713   1.469       .  S
C497        N498   1.355       .  A
C497        N502   1.364       .  A
C497        C703   1.480       .  S
N498        C499   1.348       .  A
C499        N500   1.358       .  A
N500        C501   1.361       .  A
C501        N502   1.367       .  A
C501       C1445   1.487   1_455  S
C503        N504   1.348       .  A
C503        N508   1.360       .  A
C503        C693   1.472       .  S
N504        C505   1.347       .  A
C505        N506   1.365       .  A
C505        C710   1.489       .  S
N506        C507   1.367       .  A
C507        N508   1.366       .  A
C507        C604   1.499       .  S
C509        C559   1.489       .  S
C509        C510   1.416       .  A
C509        C514   1.411       .  A
C510        C511   1.410       .  A
C511        C512   1.414       .  A
C511        H516   1.085       .  S
C512        C539   1.493       .  S
C512        C513   1.418       .  A
C513       C1329   1.486       .  S
C513        C514   1.410       .  A
C514       H1363   1.085       .  S
H515       C1362   1.085   1_455  S
O517       Ni525   1.950       .  S
O517        C527   1.289       .  A
O518       Ni525   1.950       .  S
O518        C528   1.289       .  A
O519       Ni525   1.882       .  S
O519        C529   1.274       .  A
O520       Ni525   1.881       .  S
O520        C530   1.273       .  A
O521       Ni526   1.940       .  S
O521        C530   1.287       .  A
O522       Ni526   1.940       .  S
O522        C529   1.286       .  A
O523       Ni526   1.880       .  S
O523        C528   1.273       .  A
O524       Ni526   1.882       .  S
O524        C527   1.274       .  A
Ni525      Ni526   2.381       .  S
C527        C670   1.487       .  S
C528        C650   1.491       .  S
C529        C660   1.471       .  S
C530        C680   1.478       .  S
C531        N532   1.365       .  A
C531        N536   1.354       .  A
C531        C733   1.477       .  S
N532        C533   1.368       .  A
C533        N534   1.362       .  A
N534        C535   1.360       .  A
C535        N536   1.348       .  A
C535        C673   1.473       .  S
C537        N538   1.365       .  A
C537       N1390   1.354       .  A
C537        C753   1.481   1_655  S
N538       C1387   1.369       .  A
C539       N1386   1.370       .  A
C539        N540   1.359       .  A
N540        C541   1.357       .  A
C541        N542   1.349       .  A
C541        C663   1.489       .  S
N542       C1385   1.354       .  A
C543        N544   1.352       .  A
C543        N548   1.363       .  A
C543        C700   1.477       .  S
N544        C545   1.348       .  A
C545        N546   1.359       .  A
C545        C683   1.489       .  S
N546        C547   1.361       .  A
C547        N548   1.367       .  A
C547        C605   1.489       .  S
C549        N550   1.360   1_455  A
C549       N1402   1.357   1_455  A
C549        C690   1.476       .  S
N550       C1399   1.363       .  A
C551       N1398   1.363       .  A
C551        N552   1.359       .  A
C551        C596   1.484       .  S
N552        C553   1.358       .  A
C553        N554   1.352       .  A
C553        C653   1.478       .  S
N554       C1397   1.358       .  A
C555        N556   1.356   1_556  A
C555        N560   1.360       .  A
C555        C770   1.466       .  S
N556        C557   1.355       .  A
C557        N558   1.362       .  A
C557        C643   1.495       .  S
N558        C559   1.362   1_554  A
C559        N560   1.361       .  A
C561        N562   1.360       .  A
C561        N566   1.370       .  A
C561        C780   1.493       .  S
N562        C563   1.351   1_556  A
C563        N564   1.355   1_554  A
C563        C630   1.476       .  S
N564        C565   1.357       .  A
C565        N566   1.372       .  A
O567       Ni575   1.948       .  S
O567        C577   1.288       .  A
O568       Ni575   1.946       .  S
O568        C578   1.288       .  A
O569       Ni575   1.889       .  S
O569        C579   1.275       .  A
O570       Ni575   1.885       .  S
O570        C580   1.274       .  A
O571       Ni576   1.945       .  S
O571        C580   1.288       .  A
O572       Ni576   1.948       .  S
O572        C579   1.288       .  A
O573       Ni576   1.887       .  S
O573        C578   1.275       .  A
O574       Ni576   1.889       .  S
O574        C577   1.275       .  A
Ni575      Ni576   2.379       .  S
C577        C610   1.492       .  S
C578        C633   1.483       .  S
C579        C640   1.492       .  S
C580        C620   1.484       .  S
C581        N582   1.360       .  A
C581        N586   1.357       .  A
C581        C793   1.470       .  S
N582        C583   1.362       .  A
C583        N584   1.362       .  A
C583        C593   1.486       .  S
N584        C585   1.361       .  A
C585        N586   1.355       .  A
C585        C613   1.477       .  S
C587        N588   1.368       .  A
C587        N592   1.358       .  A
C587        C833   1.490       .  S
N588        C589   1.369       .  A
C589        N590   1.357       .  A
C589        C602   1.482       .  S
N590        C591   1.355       .  A
C591        N592   1.350       .  A
C591        C623   1.475       .  S
C593        C598   1.410       .  A
C594        C595   1.406       .  A
C595        C596   1.410       .  A
C595        H600   1.084       .  S
C596        C597   1.418       .  A
C597       C1349   1.487       .  S
C598       H1447   1.084       .  S
H599       C1446   1.084   1_455  S
C601        C602   1.414       .  A
C601        C606   1.409       .  A
C602        C603   1.411       .  A
C603        C604   1.414       .  A
C603        H608   1.085       .  S
C604        C605   1.424       .  A
C605        C606   1.410       .  A
C606        H607   1.085       .  S
C609       C1458   1.410       .  A
C609        C614   1.406       .  A
C609        F616   1.357       .  S
C610       C1457   1.407       .  A
C610        C611   1.414       .  A
C611        C612   1.393       .  A
C611        F618   1.358       .  S
C612       C1461   1.405   1_455  A
C612        F617   1.358       .  S
C613       C1460   1.400       .  A
C613        C614   1.408       .  A
C614        F615   1.358       .  S
C619        C620   1.412       .  A
C619        C624   1.393       .  A
C619        F626   1.358       .  S
C620        C621   1.408       .  A
C621        C622   1.404       .  A
C621        F628   1.357       .  S
C622        C623   1.409       .  A
C622        F627   1.358       .  S
C623        C624   1.401       .  A
C624        F625   1.359       .  S
C629        C630   1.409       .  A
C629        C634   1.406       .  A
C629        F636   1.358       .  S
C630        C631   1.401       .  A
C631        C632   1.393       .  A
C631        F638   1.359       .  S
C632        C633   1.411       .  A
C632        F637   1.358       .  S
C633        C634   1.408       .  A
C634        F635   1.357       .  S
C639        C640   1.408       .  A
C639       C1492   1.408   1_455  A
C639       F1494   1.357       .  S
C640        C641   1.414       .  A
C641        C642   1.391       .  A
C641        F648   1.358       .  S
C642       C1491   1.405   1_455  A
C642        F647   1.358       .  S
C643       C1490   1.409       .  A
C643        C644   1.418       .  A
C644       C1487   1.405       .  A
C644        F645   1.357       .  S
F646       C1487   1.357       .  S
C649        C650   1.409       .  A
C649        C654   1.406       .  A
C649        F656   1.357       .  S
C650        C651   1.417       .  A
C651        C652   1.391       .  A
C651        F658   1.358       .  S
C652        C653   1.400       .  A
C652        F657   1.359       .  S
C653        C654   1.409       .  A
C654        F655   1.358       .  S
C659        C660   1.399       .  A
C659        C664   1.402       .  A
C659        F666   1.358       .  S
C660        C661   1.407       .  A
C661        C662   1.391       .  A
C661        F668   1.359       .  S
C662        C663   1.407       .  A
C662        F667   1.358       .  S
C663        C664   1.420       .  A
C664        F665   1.357       .  S
C669        C670   1.414       .  A
C669        C674   1.393       .  A
C669        F676   1.358       .  S
C670        C671   1.409       .  A
C671        C672   1.406       .  A
C671        F678   1.357       .  S
C672        C673   1.408       .  A
C672        F677   1.358       .  S
C673        C674   1.399       .  A
C674        F675   1.358       .  S
C679        C680   1.401       .  A
C679        C684   1.401       .  A
C679        F686   1.358       .  S
C680        C681   1.412       .  A
C681        C682   1.392       .  A
C681        F688   1.359       .  S
C682        C683   1.406       .  A
C682        F687   1.358       .  S
C683        C684   1.419       .  A
C684        F685   1.358       .  S
C689        C690   1.404       .  A
C689        C694   1.389       .  A
C689        F696   1.359       .  S
C690        C691   1.408       .  A
C691        C692   1.408       .  A
C691       F1546   1.357       .  S
C692        C693   1.405       .  A
C692        F697   1.357       .  S
C693        C694   1.404       .  A
C694        F695   1.359       .  S
F698       C1539   1.357       .  S
C699        C700   1.405       .  A
C699        C704   1.387       .  A
C699        F706   1.359       .  S
C700        C701   1.407       .  A
C701        C702   1.411       .  A
C701        F708   1.357       .  S
C702        C703   1.408       .  A
C702        F707   1.357       .  S
C703        C704   1.406       .  A
C704        F705   1.359       .  S
C709        C710   1.422       .  A
C709        C714   1.401       .  A
C709        F716   1.358       .  S
C710        C711   1.404       .  A
C711        C712   1.395       .  A
C711        F718   1.358       .  S
C712        C713   1.407       .  A
C712        F717   1.358       .  S
C713        C714   1.396       .  A
C714        F715   1.358       .  S
C719        C720   1.410       .  A
C719        C724   1.404       .  A
C719        F726   1.357       .  S
C720        C721   1.414       .  A
C721        C722   1.396       .  A
C721        F728   1.358       .  S
C722        C723   1.400       .  A
C722        F727   1.358       .  S
C723        C724   1.407       .  A
C724        F725   1.358       .  S
C729        C730   1.409       .  A
C729        C734   1.411       .  A
C729        F736   1.357       .  S
C730        C731   1.404       .  A
C731        C732   1.389       .  A
C731        F738   1.359       .  S
C732        C733   1.404       .  A
C732        F737   1.359       .  S
C733        C734   1.407       .  A
C734        F735   1.357       .  S
C739        C740   1.407       .  A
C739        C744   1.403       .  A
C739        F746   1.358       .  S
C740        C741   1.402       .  A
C741        C742   1.397       .  A
C741        F748   1.359       .  S
C742        C743   1.415       .  A
C742        F747   1.358       .  S
C743        C744   1.409       .  A
C744        F745   1.357       .  S
C749        C750   1.404       .  A
C749        C754   1.389       .  A
C749        F756   1.359       .  S
C750        C751   1.409       .  A
C751        C752   1.412       .  A
C751        F758   1.357       .  S
C752        C753   1.409       .  A
C752       F1605   1.357       .  S
C753        C754   1.405       .  A
C754        F755   1.359       .  S
F757       C1600   1.357       .  S
C759        F766   1.357   1_545  S
C760        C761   1.405       .  A
C761        C762   1.392       .  A
C761        F768   1.358       .  S
C762        C763   1.413       .  A
C762        F767   1.359       .  S
C763        C764   1.403       .  A
C764        F765   1.358       .  S
C769        C770   1.404   1_554  A
C769        C774   1.400       .  A
C769        F776   1.358       .  S
C770        C771   1.403       .  A
C771        C772   1.399       .  A
C771        F778   1.358       .  S
C772        C773   1.403       .  A
C772        F777   1.358       .  S
C773        C774   1.404   1_556  A
C774        F775   1.358       .  S
C779        C780   1.407       .  A
C779        C784   1.395       .  A
C779        F786   1.358       .  S
C780        C781   1.409       .  A
C781        C782   1.414       .  A
C781        F788   1.356       .  S
C782        C783   1.410       .  A
C782        F787   1.355       .  S
C783        C784   1.407       .  A
C784        F785   1.358       .  S
C789        C790   1.405       .  A
C789        C794   1.403       .  A
C789        F796   1.357       .  S
C790        C791   1.404       .  A
C791        C792   1.397       .  A
C791        F798   1.358       .  S
C792        C793   1.403       .  A
C792        F797   1.358       .  S
C793        C794   1.405       .  A
C794        F795   1.357       .  S
C799        C800   1.407       .  A
C799        C804   1.395       .  A
C799        F806   1.359       .  S
C800        C801   1.399       .  A
C801        C802   1.405       .  A
C801        F808   1.357       .  S
C802        C803   1.420       .  A
C802        F807   1.358       .  S
C803        C804   1.407       .  A
C804        F805   1.358       .  S
C809        C810   1.414       .  A
C809        C814   1.394       .  A
C809        F816   1.358       .  S
C810        C811   1.410       .  A
C811        C812   1.407       .  A
C811        F818   1.357       .  S
C812        C813   1.410       .  A
C812        F817   1.358       .  S
C813        C814   1.401       .  A
C814        F815   1.359       .  S
C819        C820   1.408       .  A
C819        C824   1.404       .  A
C819        F826   1.357       .  S
C820        C821   1.418       .  A
C821        C822   1.394       .  A
C821        F828   1.358       .  S
C822        C823   1.400       .  A
C822        F827   1.358       .  S
C823        C824   1.410       .  A
C824        F825   1.358       .  S
C829        C830   1.409       .  A
C829        C834   1.411       .  A
C829        F836   1.355       .  S
C830        C831   1.406       .  A
C831        C832   1.393       .  A
C831        F838   1.358       .  S
C832        C833   1.408       .  A
C832        F837   1.359       .  S
C833        C834   1.409       .  A
C834        F835   1.356       .  S
C839        C840   1.408       .  A
C839        C844   1.405       .  A
C839        F846   1.357       .  S
C840        C841   1.413       .  A
C841        C842   1.398       .  A
C841        F848   1.358       .  S
C842        C843   1.403       .  A
C842        F847   1.358       .  S
C843        C844   1.409       .  A
C844        F845   1.358       .  S
C849        N850   1.369       .  A
C849        N854   1.360   1_545  A
C849       C1254   1.495       .  S
N850        C851   1.371   1_545  A
C851       N1276   1.359       .  A
C851       C1442   1.486       .  S
N852       C1275   1.358       .  A
N852        C853   1.356       .  A
C853       N1278   1.352       .  A
C853       C1267   1.482       .  S
N854       C1277   1.352       .  A
O855       Ni863   1.943       .  S
O855        C865   1.287       .  A
O856       Ni863   1.946       .  S
O856        C866   1.288       .  A
O857       Ni863   1.884       .  S
O857        C867   1.273       .  A
O858       Ni863   1.883       .  S
O858        C868   1.274       .  A
O859       Ni864   1.946       .  S
O859        C868   1.288       .  A
O860       Ni864   1.945       .  S
O860        C867   1.287       .  A
O861       Ni864   1.892       .  S
O861        C866   1.275       .  A
O862       Ni864   1.893       .  S
O862        C865   1.276       .  A
Ni863      Ni864   2.383       .  S
C865       C1234   1.489       .  S
C866       C1264   1.489       .  S
C867       C1224   1.472       .  S
C868       C1244   1.485       .  S
C869        N870   1.354       .  A
C869        N874   1.360       .  A
C869       C1214   1.461       .  S
N870        C871   1.352       .  A
C871        N872   1.360       .  A
C871       C1247   1.491       .  S
N872        C873   1.360       .  A
C873        N874   1.361       .  A
C873       C1025   1.486       .  S
C875        N876   1.360       .  A
C875        N880   1.369       .  A
C875       C1207   1.496       .  S
N876        C877   1.352   1_556  A
C877        N878   1.355   1_554  A
C877       C1237   1.479       .  S
N878        C879   1.357       .  A
C879        N880   1.372       .  A
C879        C934   1.485       .  S
C881        N882   1.360       .  A
C881        N886   1.352   1_556  A
C881       C1197   1.466       .  S
N882        C883   1.363   1_545  A
C883       N1308   1.363       .  A
C883       C1311   1.492       .  S
N884       C1307   1.362   1_554  A
N884        C885   1.362       .  A
C885       N1310   1.353       .  A
C885       C1227   1.490       .  S
N886       C1309   1.353   1_545  A
C887       C1307   1.490       .  S
C887       C1312   1.414       .  A
C887        C892   1.412       .  A
C888        C989   1.488       .  S
C888       C1311   1.416   1_545  A
C888        C889   1.410       .  A
C889       C1314   1.414   1_545  A
C889        H894   1.085       .  S
C890        C897   1.494       .  S
C890       C1313   1.413       .  A
C890        C891   1.421       .  A
C891        C957   1.489       .  S
C891        C892   1.412       .  A
C892        H893   1.085       .  S
C895        N896   1.364       .  A
C895        N900   1.354       .  A
C895       C1174   1.481       .  S
N896        C897   1.368       .  A
C897        N898   1.361       .  A
N898        C899   1.359       .  A
C899        N900   1.350       .  A
C899       C1608   1.492       .  S
C901        N902   1.355       .  A
C901        N906   1.364       .  A
C901       C1154   1.480       .  S
N902        C903   1.349       .  A
C903        N904   1.358       .  A
C903       C1164   1.477       .  S
N904        C905   1.360       .  A
C905        N906   1.367       .  A
O907       Ni915   1.941       .  S
O907        C917   1.288       .  A
O908       Ni915   1.944       .  S
O908        C918   1.288       .  A
O909       Ni915   1.880       .  S
O909        C919   1.273       .  A
O910       Ni915   1.880       .  S
O910        C920   1.272       .  A
O911       Ni916   1.947       .  S
O911        C920   1.288       .  A
O912       Ni916   1.949       .  S
O912        C919   1.289       .  A
O913       Ni916   1.884       .  S
O913        C918   1.274       .  A
O914       Ni916   1.882       .  S
O914        C917   1.273       .  A
Ni915      Ni916   2.382       .  S
C917       C1144   1.485       .  S
C918       C1167   1.488       .  S
C919       C1187   1.486       .  S
C920       C1137   1.470       .  S
C921        N922   1.358       .  A
C921        N926   1.362       .  A
C921       C1127   1.479       .  S
N922        C923   1.351       .  A
C923        N924   1.359       .  A
C923       C1571   1.480       .  S
N924        C925   1.360       .  A
C925        N926   1.364       .  A
C927        N928   1.350       .  A
C927        N932   1.362       .  A
C927       C1117   1.474       .  S
N928        C929   1.347       .  A
C929        N930   1.361       .  A
C929       C1134   1.488       .  S
N930        C931   1.364       .  A
C931        N932   1.368       .  A
C931       C1028   1.494       .  S
C933        C983   1.495       .  S
C933        C934   1.418       .  A
C933        C938   1.413       .  A
C934        C935   1.410       .  A
C935        C936   1.412       .  A
C935        H940   1.085       .  S
C936        C963   1.496       .  S
C936        C937   1.420       .  A
C937        C938   1.413       .  A
O941       Ni949   1.945       .  S
O941        C951   1.288       .  A
O942       Ni949   1.950       .  S
O942        C952   1.289       .  A
O943       Ni949   1.887       .  S
O943        C953   1.273       .  A
O944       Ni949   1.886       .  S
O944        C954   1.274       .  A
O945       Ni950   1.941       .  S
O945        C954   1.287       .  A
O946       Ni950   1.943       .  S
O946        C953   1.287       .  A
O947       Ni950   1.880       .  S
O947        C952   1.273       .  A
O948       Ni950   1.880       .  S
O948        C951   1.273       .  A
Ni949      Ni950   2.382       .  S
C951       C1094   1.485       .  S
C952       C1074   1.491       .  S
C953       C1084   1.469       .  S
C954       C1104   1.485       .  S
C955        N956   1.365       .  A
C955        N960   1.353       .  A
C955       C1157   1.477       .  S
N956        C957   1.368       .  A
C957        N958   1.362       .  A
N958        C959   1.358       .  A
C959        N960   1.346       .  A
C959       C1097   1.471       .  S
C961        N962   1.361       .  A
C961       C1177   1.481       .  S
C963        N964   1.364       .  A
N964        C965   1.362       .  A
C965        N966   1.350       .  A
C965       C1087   1.488       .  S
C967        N968   1.353       .  A
C967        N972   1.364       .  A
C967       C1124   1.476       .  S
N968        C969   1.346       .  A
C969        N970   1.357       .  A
C969       C1107   1.472       .  S
N970        C971   1.361       .  A
C971        N972   1.368       .  A
C971       C1029   1.488       .  S
C973        N974   1.362       .  A
C973       C1114   1.479       .  S
C975        N976   1.358       .  A
C975       C1020   1.486       .  S
N976        C977   1.358       .  A
C977        N978   1.353       .  A
C977       C1077   1.481       .  S
C979        N980   1.352   1_556  A
C979        N984   1.358       .  A
C979       C1194   1.466       .  S
N980        C981   1.354       .  A
C981        N982   1.366       .  A
C981       C1067   1.496       .  S
N982        C983   1.366   1_554  A
C983        N984   1.363       .  A
C985        N986   1.360       .  A
C985        N990   1.370       .  A
C985       C1204   1.497       .  S
N986        C987   1.351   1_556  A
C987        N988   1.356   1_554  A
C987       C1054   1.478       .  S
N988        C989   1.358       .  A
C989        N990   1.373       .  A
O991       Ni999   1.949       .  S
O991       C1001   1.289       .  A
O992       Ni999   1.947       .  S
O992       C1002   1.288       .  A
O993       Ni999   1.889       .  S
O993       C1003   1.274       .  A
O994       Ni999   1.890       .  S
O994       C1004   1.275       .  A
O995      Ni1000   1.948       .  S
O995       C1004   1.289       .  A
O996      Ni1000   1.949       .  S
O996       C1003   1.288       .  A
O997      Ni1000   1.890       .  S
O997       C1002   1.275       .  A
O998      Ni1000   1.886       .  S
O998       C1001   1.274       .  A
Ni999     Ni1000   2.381       .  S
C1001      C1034   1.493       .  S
C1002      C1057   1.487       .  S
C1003      C1064   1.478       .  S
C1004      C1044   1.492       .  S
C1005      N1006   1.358       .  A
C1005      N1010   1.355       .  A
C1005      C1217   1.460       .  S
N1006      C1007   1.359       .  A
C1007      N1008   1.360       .  A
C1007      C1017   1.478       .  S
N1008      C1009   1.360       .  A
C1009      N1010   1.353       .  A
C1009      C1037   1.477       .  S
C1011      N1012   1.371       .  A
C1011      N1016   1.361       .  A
C1011      C1257   1.497       .  S
N1012      C1013   1.371       .  A
C1013      N1014   1.356       .  A
C1013      C1026   1.487       .  S
N1014      C1015   1.355       .  A
C1015      N1016   1.353       .  A
C1015      C1047   1.484       .  S
C1017      C1442   1.414   1_545  A
C1017      C1022   1.409   1_545  A
C1018      C1275   1.484       .  S
C1018      C1441   1.417       .  A
C1018      C1019   1.408       .  A
C1019      C1020   1.409       .  A
C1019      H1024   1.084       .  S
C1020      C1021   1.416       .  A
C1021      C1446   1.408       .  A
C1022      C1445   1.407       .  A
C1025      C1026   1.415       .  A
C1025      C1030   1.409       .  A
C1026      C1027   1.410       .  A
C1027      C1028   1.413       .  A
C1027      H1032   1.085       .  S
C1028      C1029   1.421       .  A
C1029      C1030   1.409       .  A
C1030      H1031   1.085       .  S
C1033      C1038   1.406   1_455  A
C1033      F1040   1.357       .  S
C1034      C1035   1.417       .  A
C1035      C1036   1.393       .  A
C1035      F1042   1.358       .  S
C1036      F1041   1.359       .  S
C1037      C1038   1.409       .  A
C1038      F1039   1.358       .  S
C1043      C1044   1.414       .  A
C1043      C1048   1.394       .  A
C1043      F1050   1.358       .  S
C1044      C1045   1.409       .  A
C1045      C1046   1.407       .  A
C1045      F1052   1.357       .  S
C1046      C1047   1.411       .  A
C1046      F1051   1.357       .  S
C1047      C1048   1.403       .  A
C1048      F1049   1.359       .  S
C1053      C1054   1.409       .  A
C1053      C1058   1.405       .  A
C1053      F1060   1.358       .  S
C1054      C1055   1.401       .  A
C1055      C1056   1.396       .  A
C1055      F1062   1.358       .  S
C1056      C1057   1.413       .  A
C1056      F1061   1.358       .  S
C1057      C1058   1.408       .  A
C1058      F1059   1.357       .  S
C1063      C1064   1.400       .  A
C1064      C1065   1.407       .  A
C1065      C1066   1.396       .  A
C1065      F1072   1.358       .  S
C1066      F1071   1.358       .  S
C1067      C1068   1.421       .  A
C1068      F1069   1.358       .  S
C1073      C1074   1.409       .  A
C1073      C1078   1.407       .  A
C1073      F1080   1.357       .  S
C1074      C1075   1.416       .  A
C1075      C1076   1.391       .  A
C1075      F1082   1.359       .  S
C1076      C1077   1.401       .  A
C1076      F1081   1.359       .  S
C1077      C1078   1.410       .  A
C1078      F1079   1.358       .  S
C1083      C1084   1.397       .  A
C1083      C1088   1.401       .  A
C1083      F1090   1.358       .  S
C1084      C1085   1.407       .  A
C1085      C1086   1.397       .  A
C1085      F1092   1.358       .  S
C1086      C1087   1.406       .  A
C1086      F1091   1.358       .  S
C1087      C1088   1.418       .  A
C1088      F1089   1.357       .  S
C1093      C1094   1.415       .  A
C1093      C1098   1.393       .  A
C1093      F1100   1.359       .  S
C1094      C1095   1.408       .  A
C1095      C1096   1.403       .  A
C1095      F1102   1.357       .  S
C1096      C1097   1.407       .  A
C1096      F1101   1.358       .  S
C1097      C1098   1.399       .  A
C1098      F1099   1.359       .  S
C1103      C1104   1.408       .  A
C1103      C1108   1.403       .  A
C1103      F1110   1.357       .  S
C1104      C1105   1.414       .  A
C1105      C1106   1.393       .  A
C1105      F1112   1.358       .  S
C1106      C1107   1.400       .  A
C1106      F1111   1.359       .  S
C1107      C1108   1.408       .  A
C1108      F1109   1.358       .  S
C1113      C1114   1.404       .  A
C1113      C1118   1.388       .  A
C1113      F1120   1.359       .  S
C1114      C1115   1.410       .  A
C1115      C1116   1.411       .  A
C1116      C1117   1.406       .  A
C1116      F1121   1.357       .  S
C1117      C1118   1.404       .  A
C1118      F1119   1.359       .  S
C1123      C1124   1.405       .  A
C1123      C1128   1.387       .  A
C1123      F1130   1.359       .  S
C1124      C1125   1.407       .  A
C1125      C1126   1.411       .  A
C1125      F1132   1.357       .  S
C1126      C1127   1.410       .  A
C1126      F1131   1.357       .  S
C1127      C1128   1.403       .  A
C1128      F1129   1.359       .  S
C1133      C1134   1.421       .  A
C1133      C1138   1.401       .  A
C1133      F1140   1.358       .  S
C1134      C1135   1.405       .  A
C1135      C1136   1.394       .  A
C1135      F1142   1.358       .  S
C1136      C1137   1.408       .  A
C1136      F1141   1.359       .  S
C1137      C1138   1.397       .  A
C1138      F1139   1.357       .  S
C1143      C1144   1.408       .  A
C1143      C1148   1.402       .  A
C1143      F1150   1.357       .  S
C1144      C1145   1.415       .  A
C1145      C1146   1.393       .  A
C1145      F1152   1.359       .  S
C1146      C1147   1.399       .  A
C1146      F1151   1.359   1_545  S
C1147      C1347   1.471   1_545  S
C1147      C1148   1.407       .  A
C1148      F1149   1.358       .  S
C1153      C1154   1.409       .  A
C1153      C1158   1.412       .  A
C1153      F1160   1.357       .  S
C1154      C1155   1.405       .  A
C1155      C1156   1.387       .  A
C1155      F1162   1.359       .  S
C1156      C1157   1.405       .  A
C1156      F1161   1.360       .  S
C1157      C1158   1.407       .  A
C1158      F1159   1.357       .  S
C1163      C1164   1.409       .  A
C1163      C1168   1.403       .  A
C1163      F1170   1.358       .  S
C1164      C1165   1.401       .  A
C1165      C1166   1.394       .  A
C1165      F1172   1.358       .  S
C1166      C1167   1.416       .  A
C1166      F1171   1.358       .  S
C1167      C1168   1.408       .  A
C1168      F1169   1.357       .  S
C1173      C1174   1.405       .  A
C1173      C1178   1.388       .  A
C1173      F1180   1.359       .  S
C1174      C1175   1.409       .  A
C1175      C1176   1.413       .  A
C1175      F1182   1.357       .  S
C1176      C1177   1.409       .  A
C1177      C1178   1.405       .  A
C1178      F1179   1.358       .  S
C1183      C1608   1.419       .  A
C1183      C1612   1.402       .  A
C1183      F1190   1.357       .  S
C1184      C1323   1.490   1_545  S
C1184      C1607   1.417       .  A
C1184      C1185   1.405       .  A
C1185      C1186   1.392       .  A
C1185      F1192   1.358       .  S
C1186      C1187   1.414       .  A
C1186      F1191   1.359       .  S
C1187      C1188   1.404       .  A
C1188      C1607   1.405       .  A
C1188      F1189   1.358       .  S
C1193      C1194   1.405   1_554  A
C1193      C1198   1.401       .  A
C1193      F1200   1.358       .  S
C1194      C1195   1.402       .  A
C1195      C1196   1.398       .  A
C1195      F1202   1.358       .  S
C1196      C1197   1.403       .  A
C1196      F1201   1.358       .  S
C1197      C1198   1.405   1_556  A
C1198      F1199   1.358       .  S
C1203      C1204   1.408       .  A
C1203      C1208   1.394       .  A
C1203      F1210   1.358       .  S
C1204      C1205   1.411       .  A
C1205      C1206   1.416       .  A
C1205      F1212   1.356       .  S
C1206      C1207   1.411       .  A
C1206      F1211   1.356       .  S
C1207      C1208   1.407       .  A
C1208      F1209   1.358       .  S
C1213      C1214   1.404       .  A
C1213      C1218   1.400       .  A
C1213      F1220   1.358       .  S
C1214      C1215   1.402       .  A
C1215      C1216   1.395       .  A
C1215      F1222   1.358       .  S
C1216      C1217   1.402       .  A
C1216      F1221   1.358       .  S
C1217      C1218   1.403       .  A
C1218      F1219   1.358       .  S
C1223      C1224   1.406       .  A
C1223      C1228   1.394       .  A
C1223      F1230   1.359       .  S
C1224      C1225   1.399       .  A
C1225      C1226   1.404       .  A
C1225      F1232   1.358       .  S
C1226      C1227   1.419       .  A
C1226      F1231   1.358       .  S
C1227      C1228   1.407       .  A
C1228      F1229   1.358       .  S
C1233      C1234   1.413       .  A
C1233      C1238   1.395       .  A
C1233      F1240   1.358       .  S
C1234      C1235   1.409       .  A
C1235      C1236   1.405       .  A
C1235      F1242   1.357       .  S
C1236      C1237   1.409       .  A
C1236      F1241   1.358       .  S
C1237      C1238   1.402       .  A
C1238      F1239   1.358       .  S
C1243      C1244   1.404       .  A
C1243      C1248   1.406       .  A
C1243      F1250   1.358       .  S
C1244      C1245   1.412       .  A
C1245      C1246   1.391       .  A
C1245      F1252   1.359       .  S
C1246      C1247   1.406       .  A
C1246      F1251   1.358       .  S
C1247      C1248   1.418       .  A
C1248      F1249   1.358       .  S
C1253      C1254   1.410       .  A
C1253      C1258   1.414       .  A
C1253      F1260   1.355       .  S
C1254      C1255   1.408       .  A
C1255      C1256   1.395       .  A
C1255      F1262   1.358   1_545  S
C1256      C1257   1.409       .  A
C1256      F1261   1.358       .  S
C1257      C1258   1.411       .  A
C1258      F1259   1.355       .  S
C1263      C1264   1.408       .  A
C1263      C1268   1.405       .  A
C1263      F1270   1.358       .  S
C1264      C1265   1.413       .  A
C1265      C1266   1.396       .  A
C1265      F1272   1.358       .  S
C1266      C1267   1.403       .  A
C1266      F1271   1.358       .  S
C1267      C1268   1.410       .  A
C1268      F1269   1.358       .  S
C1273      N1274   1.368       .  A
C1273      N1278   1.360       .  A
C1273      C1678   1.494       .  S
N1274      C1275   1.369       .  A
N1276      C1277   1.357       .  A
C1277      C1691   1.482       .  S
O1279     Ni1287   1.941       .  S
O1279      C1289   1.287       .  A
O1280     Ni1287   1.944       .  S
O1280      C1290   1.288       .  A
O1281     Ni1287   1.886       .  S
O1281      C1291   1.274       .  A
O1282     Ni1287   1.883       .  S
O1282      C1292   1.274       .  A
O1283     Ni1288   1.946       .  S
O1283      C1292   1.288       .  A
O1284     Ni1288   1.945       .  S
O1284      C1291   1.287       .  A
O1285     Ni1288   1.896       .  S
O1285      C1290   1.276       .  A
O1286     Ni1288   1.895       .  S
O1286      C1289   1.277       .  A
Ni1287    Ni1288   2.383       .  S
C1289      C1658   1.489       .  S
C1290      C1688   1.488       .  S
C1291      C1648   1.472       .  S
C1292      C1668   1.487       .  S
C1293      N1294   1.353       .  A
C1293      N1298   1.363       .  A
C1293      C1638   1.469       .  S
N1294      C1295   1.352       .  A
C1295      N1296   1.361       .  A
C1295      C1671   1.487       .  S
N1296      C1297   1.361       .  A
C1297      N1298   1.365       .  A
C1297      C1449   1.492       .  S
C1299      N1300   1.361       .  A
C1299      N1304   1.368       .  A
C1299      C1631   1.492       .  S
N1300      C1301   1.353   1_556  A
C1301      N1302   1.355       .  A
C1301      C1661   1.479       .  S
N1302      C1303   1.356   1_554  A
C1303      N1304   1.369       .  A
C1303      C1358   1.482       .  S
C1305      N1306   1.361       .  A
C1305      N1310   1.353   1_556  A
C1305      C1621   1.467       .  S
N1306      C1307   1.364       .  A
N1308      C1309   1.363   1_556  A
C1309      C1651   1.491       .  S
C1311      C1316   1.413       .  A
C1312      C1413   1.485       .  S
C1312      C1313   1.409       .  A
C1313      H1318   1.085       .  S
C1314      C1321   1.495       .  S
C1314      C1315   1.420       .  A
C1315      C1381   1.489       .  S
C1315      C1316   1.412       .  A
C1316      H1317   1.085       .  S
C1319      N1320   1.365       .  A
C1319      N1324   1.355       .  A
C1319      C1598   1.485       .  S
N1320      C1321   1.369       .  A
C1321      N1322   1.361       .  A
N1322      C1323   1.359       .  A
C1323      N1324   1.350       .  A
C1325      N1326   1.354       .  A
C1325      N1330   1.363       .  A
C1325      C1578   1.476       .  S
N1326      C1327   1.349       .  A
C1327      N1328   1.358       .  A
C1327      C1588   1.473       .  S
N1328      C1329   1.362       .  A
C1329      N1330   1.366       .  A
O1331     Ni1339   1.947       .  S
O1331      C1341   1.289       .  A
O1332     Ni1339   1.947       .  S
O1332      C1342   1.289       .  A
O1333     Ni1339   1.886       .  S
O1333      C1343   1.274       .  A
O1334     Ni1339   1.886       .  S
O1334      C1344   1.273       .  A
O1335     Ni1340   1.941       .  S
O1335      C1344   1.286       .  A
O1336     Ni1340   1.942       .  S
O1336      C1343   1.287       .  A
O1337     Ni1340   1.885       .  S
O1337      C1342   1.274       .  A
O1338     Ni1340   1.886       .  S
O1338      C1341   1.274       .  A
Ni1339    Ni1340   2.384       .  S
C1341      C1568   1.492       .  S
C1342      C1591   1.487       .  S
C1343      C1611   1.478       .  S
C1344      C1561   1.468       .  S
C1345      N1346   1.355       .  A
C1345      N1350   1.365       .  A
C1345      C1551   1.480       .  S
N1346      C1347   1.348       .  A
C1347      N1348   1.358       .  A
N1348      C1349   1.361       .  A
C1349      N1350   1.368       .  A
C1351      N1352   1.348       .  A
C1351      N1356   1.361       .  A
C1351      C1541   1.475       .  S
N1352      C1353   1.346       .  A
C1353      N1354   1.364       .  A
C1353      C1558   1.488       .  S
N1354      C1355   1.368       .  A
C1355      N1356   1.368       .  A
C1355      C1452   1.499       .  S
C1357      C1407   1.487       .  S
C1357      C1358   1.414       .  A
C1357      C1362   1.410       .  A
C1358      C1359   1.409       .  A
C1359      C1360   1.412       .  A
C1359      H1364   1.085       .  S
C1360      C1387   1.492       .  S
C1360      C1361   1.418       .  A
C1361      C1362   1.410       .  A
O1365     Ni1373   1.944       .  S
O1365      C1375   1.287       .  A
O1366     Ni1373   1.943       .  S
O1366      C1376   1.288       .  A
O1367     Ni1373   1.885       .  S
O1367      C1377   1.275       .  A
O1368     Ni1373   1.885       .  S
O1368      C1378   1.274       .  A
O1369     Ni1374   1.939       .  S
O1369      C1378   1.286       .  A
O1370     Ni1374   1.938       .  S
O1370      C1377   1.286       .  A
O1371     Ni1374   1.883       .  S
O1371      C1376   1.274       .  A
O1372     Ni1374   1.884       .  S
O1372      C1375   1.275       .  A
Ni1373    Ni1374   2.382       .  S
C1375      C1518   1.485       .  S
C1376      C1498   1.488       .  S
C1377      C1508   1.473       .  S
C1378      C1528   1.476       .  S
C1379      N1380   1.364       .  A
C1379      N1384   1.355       .  A
C1379      C1581   1.476       .  S
N1380      C1381   1.367       .  A
C1381      N1382   1.361       .  A
N1382      C1383   1.359       .  A
C1383      N1384   1.349       .  A
C1383      C1521   1.471       .  S
C1385      N1386   1.365       .  A
C1385      C1601   1.485       .  S
C1387      N1388   1.359       .  A
N1388      C1389   1.357       .  A
C1389      N1390   1.349       .  A
C1389      C1511   1.489       .  S
C1391      N1392   1.352       .  A
C1391      N1396   1.363       .  A
C1391      C1548   1.478       .  S
N1392      C1393   1.349       .  A
C1393      N1394   1.362       .  A
C1393      C1531   1.492       .  S
N1394      C1395   1.363       .  A
C1395      N1396   1.367       .  A
C1395      C1453   1.493       .  S
C1397      N1398   1.360       .  A
C1397      C1538   1.477       .  S
C1399      N1400   1.357       .  A
C1399      C1444   1.482       .  S
N1400      C1401   1.357       .  A
C1401      N1402   1.352       .  A
C1401      C1501   1.481       .  S
C1403      N1404   1.358   1_556  A
C1403      N1408   1.362       .  A
C1403      C1618   1.468       .  S
N1404      C1405   1.356       .  A
C1405      N1406   1.360       .  A
C1405      C1491   1.490       .  S
N1406      C1407   1.358   1_554  A
C1407      N1408   1.362       .  A
C1409      N1410   1.359       .  A
C1409      N1414   1.369       .  A
C1409      C1628   1.491       .  S
N1410      C1411   1.350   1_556  A
C1411      N1412   1.356   1_554  A
C1411      C1478   1.477       .  S
N1412      C1413   1.358       .  A
C1413      N1414   1.371       .  A
O1415     Ni1423   1.947       .  S
O1415      C1425   1.289       .  A
O1416     Ni1423   1.943       .  S
O1416      C1426   1.287       .  A
O1417     Ni1423   1.892       .  S
O1417      C1427   1.275       .  A
O1418     Ni1423   1.889       .  S
O1418      C1428   1.275       .  A
O1419     Ni1424   1.945       .  S
O1419      C1428   1.288       .  A
O1420     Ni1424   1.946       .  S
O1420      C1427   1.287       .  A
O1421     Ni1424   1.890       .  S
O1421      C1426   1.275       .  A
O1422     Ni1424   1.889       .  S
O1422      C1425   1.275       .  A
Ni1423    Ni1424   2.383       .  S
C1425      C1458   1.490       .  S
C1426      C1481   1.485       .  S
C1427      C1488   1.478       .  S
C1428      C1468   1.488       .  S
C1429      N1430   1.360       .  A
C1429      N1434   1.357       .  A
C1429      C1641   1.468       .  S
N1430      C1431   1.361       .  A
C1431      N1432   1.361       .  A
C1431      C1441   1.486       .  S
N1432      C1433   1.361       .  A
C1433      N1434   1.356       .  A
C1433      C1461   1.491       .  S
C1435      N1436   1.369       .  A
C1435      N1440   1.358       .  A
C1435      C1681   1.494       .  S
N1436      C1437   1.371       .  A
C1437      N1438   1.359       .  A
C1437      C1450   1.487       .  S
N1438      C1439   1.357       .  A
C1439      N1440   1.351       .  A
C1439      C1471   1.481       .  S
C1441      C1446   1.410       .  A
C1442      C1443   1.406       .  A
C1443      C1444   1.410       .  A
C1443      H1448   1.084       .  S
C1444      C1445   1.418       .  A
C1449      C1450   1.416       .  A
C1449      C1454   1.412       .  A
C1450      C1451   1.411       .  A
C1451      C1452   1.414       .  A
C1451      H1456   1.085       .  S
C1452      C1453   1.425       .  A
C1453      C1454   1.412       .  A
C1454      H1455   1.085       .  S
C1457      C1462   1.407   1_455  A
C1457      F1464   1.357       .  S
C1458      C1459   1.415       .  A
C1459      C1460   1.395       .  A
C1459      F1466   1.358       .  S
C1460      F1465   1.358       .  S
C1461      C1462   1.414       .  A
C1462      F1463   1.358       .  S
C1467      C1468   1.413       .  A
C1467      C1472   1.395       .  A
C1467      F1474   1.358       .  S
C1468      C1469   1.408       .  A
C1469      C1470   1.405       .  A
C1469      F1476   1.358       .  S
C1470      C1471   1.411       .  A
C1470      F1475   1.358       .  S
C1471      C1472   1.402       .  A
C1472      F1473   1.358       .  S
C1477      C1478   1.409       .  A
C1477      C1482   1.404       .  A
C1477      F1484   1.358       .  S
C1478      C1479   1.401       .  A
C1479      C1480   1.394       .  A
C1479      F1486   1.358       .  S
C1480      C1481   1.412       .  A
C1480      F1485   1.358       .  S
C1481      C1482   1.408       .  A
C1482      F1483   1.357       .  S
C1487      C1488   1.401       .  A
C1488      C1489   1.407       .  A
C1489      C1490   1.396       .  A
C1489      F1496   1.359       .  S
C1490      F1495   1.358       .  S
C1491      C1492   1.414       .  A
C1492      F1493   1.358       .  S
C1497      C1498   1.408       .  A
C1497      C1502   1.404       .  A
C1497      F1504   1.357       .  S
C1498      C1499   1.416       .  A
C1499      C1500   1.390       .  A
C1499      F1506   1.359       .  S
C1500      C1501   1.403       .  A
C1500      F1505   1.359       .  S
C1501      C1502   1.411       .  A
C1502      F1503   1.358       .  S
C1507      C1508   1.400       .  A
C1507      C1512   1.402       .  A
C1507      F1514   1.358       .  S
C1508      C1509   1.408       .  A
C1509      C1510   1.391       .  A
C1509      F1516   1.359       .  S
C1510      C1511   1.407       .  A
C1510      F1515   1.358       .  S
C1511      C1512   1.419       .  A
C1512      F1513   1.358       .  S
C1517      C1518   1.413       .  A
C1517      C1522   1.392       .  A
C1517      F1524   1.358       .  S
C1518      C1519   1.410       .  A
C1519      C1520   1.405       .  A
C1519      F1526   1.358       .  S
C1520      C1521   1.407       .  A
C1520      F1525   1.358       .  S
C1521      C1522   1.399       .  A
C1522      F1523   1.358       .  S
C1527      C1528   1.399       .  A
C1527      C1532   1.402       .  A
C1527      F1534   1.358       .  S
C1528      C1529   1.410       .  A
C1529      C1530   1.393       .  A
C1529      F1536   1.359       .  S
C1530      C1531   1.406       .  A
C1530      F1535   1.358       .  S
C1531      C1532   1.421       .  A
C1532      F1533   1.358       .  S
C1537      C1538   1.403       .  A
C1537      C1542   1.389       .  A
C1537      F1544   1.359       .  S
C1538      C1539   1.409       .  A
C1539      C1540   1.409       .  A
C1540      C1541   1.406       .  A
C1540      F1545   1.357       .  S
C1541      C1542   1.405       .  A
C1542      F1543   1.359       .  S
C1547      C1548   1.405       .  A
C1547      C1552   1.388       .  A
C1547      F1554   1.359       .  S
C1548      C1549   1.407       .  A
C1549      C1550   1.411       .  A
C1549      F1556   1.357       .  S
C1550      C1551   1.408       .  A
C1550      F1555   1.357       .  S
C1551      C1552   1.406       .  A
C1552      F1553   1.359       .  S
C1557      C1558   1.421       .  A
C1557      C1562   1.399       .  A
C1557      F1564   1.358       .  S
C1558      C1559   1.404       .  A
C1559      C1560   1.397       .  A
C1559      F1566   1.358       .  S
C1560      C1561   1.408       .  A
C1560      F1565   1.358       .  S
C1561      C1562   1.396       .  A
C1562      F1563   1.358       .  S
C1567      C1568   1.410       .  A
C1567      C1572   1.406       .  A
C1567      F1574   1.357       .  S
C1568      C1569   1.416       .  A
C1569      C1570   1.393       .  A
C1569      F1576   1.358       .  S
C1570      C1571   1.401       .  A
C1570      F1575   1.358       .  S
C1571      C1572   1.410       .  A
C1572      F1573   1.358       .  S
C1577      C1578   1.407       .  A
C1577      C1582   1.410       .  A
C1577      F1584   1.357       .  S
C1578      C1579   1.404       .  A
C1579      C1580   1.390       .  A
C1579      F1586   1.359       .  S
C1580      C1581   1.404       .  A
C1580      F1585   1.359       .  S
C1581      C1582   1.407       .  A
C1582      F1583   1.357       .  S
C1587      C1588   1.407       .  A
C1587      C1592   1.403       .  A
C1587      F1594   1.358       .  S
C1588      C1589   1.400       .  A
C1589      C1590   1.395       .  A
C1589      F1596   1.359       .  S
C1590      C1591   1.415       .  A
C1590      F1595   1.358       .  S
C1591      C1592   1.408       .  A
C1592      F1593   1.357       .  S
C1597      C1598   1.406       .  A
C1597      C1602   1.388       .  A
C1597      F1604   1.359       .  S
C1598      C1599   1.410       .  A
C1599      C1600   1.414       .  A
C1599      F1606   1.357       .  S
C1600      C1601   1.410       .  A
C1601      C1602   1.406       .  A
C1602      F1603   1.359       .  S
C1607      F1614   1.358   1_545  S
C1608      C1609   1.407       .  A
C1609      C1610   1.394       .  A
C1609      F1616   1.358       .  S
C1610      C1611   1.410       .  A
C1610      F1615   1.359       .  S
C1611      C1612   1.400       .  A
C1612      F1613   1.357       .  S
C1617      C1618   1.404   1_554  A
C1617      C1622   1.399       .  A
C1617      F1624   1.358       .  S
C1618      C1619   1.404       .  A
C1619      C1620   1.401       .  A
C1619      F1626   1.358       .  S
C1620      C1621   1.404       .  A
C1620      F1625   1.358       .  S
C1621      C1622   1.404   1_556  A
C1622      F1623   1.358       .  S
C1627      C1628   1.407       .  A
C1627      C1632   1.394       .  A
C1627      F1634   1.358       .  S
C1628      C1629   1.409       .  A
C1629      C1630   1.413       .  A
C1629      F1636   1.355       .  S
C1630      C1631   1.410       .  A
C1630      F1635   1.355       .  S
C1631      C1632   1.407       .  A
C1632      F1633   1.358       .  S
C1637      C1638   1.404       .  A
C1637      C1642   1.402       .  A
C1637      F1644   1.357       .  S
C1638      C1639   1.405       .  A
C1639      C1640   1.398       .  A
C1639      F1646   1.358       .  S
C1640      C1641   1.403       .  A
C1640      F1645   1.358       .  S
C1641      C1642   1.404       .  A
C1642      F1643   1.357       .  S
C1647      C1648   1.406       .  A
C1647      C1652   1.394       .  A
C1647      F1654   1.359       .  S
C1648      C1649   1.399       .  A
C1649      C1650   1.404       .  A
C1649      F1656   1.358       .  S
C1650      C1651   1.419       .  A
C1650      F1655   1.358       .  S
C1651      C1652   1.407       .  A
C1652      F1653   1.358       .  S
C1657      C1658   1.413       .  A
C1657      C1662   1.394       .  A
C1657      F1664   1.358       .  S
C1658      C1659   1.410       .  A
C1659      C1660   1.405       .  A
C1659      F1666   1.357       .  S
C1660      C1661   1.408       .  A
C1660      F1665   1.358       .  S
C1661      C1662   1.402       .  A
C1662      F1663   1.359       .  S
C1667      C1668   1.406       .  A
C1667      C1672   1.405       .  A
C1667      F1674   1.358       .  S
C1668      C1669   1.414       .  A
C1669      C1670   1.392       .  A
C1669      F1676   1.358       .  S
C1670      C1671   1.403       .  A
C1670      F1675   1.358       .  S
C1671      C1672   1.415       .  A
C1672      F1673   1.358       .  S
C1677      C1678   1.410       .  A
C1677      C1682   1.413       .  A
C1677      F1684   1.355       .  S
C1678      C1679   1.407       .  A
C1679      C1680   1.394       .  A
C1679      F1686   1.358       .  S
C1680      C1681   1.409       .  A
C1680      F1685   1.358       .  S
C1681      C1682   1.410       .  A
C1682      F1683   1.355       .  S
C1687      C1688   1.408       .  A
C1687      C1692   1.404       .  A
C1687      F1694   1.358       .  S
C1688      C1689   1.412       .  A
C1689      C1690   1.398       .  A
C1689      F1696   1.358       .  S
C1690      C1691   1.403       .  A
C1690      F1695   1.358       .  S
C1691      C1692   1.409       .  A
C1692      F1693   1.358       .  S
