geometry optimzed in LAMMPS
_audit_creation_date              2020-11-30 
_audit_creation_method            'lammps2cif' 
_symmetry_space_group_name_H-M    'P1' 
_symmetry_Int_Tables_number       1 
_symmetry_cell_setting            triclinic 
loop_ 
_symmetry_equiv_pos_as_xyz 
  x,y,z 
_cell_length_a                    32.74490864 
_cell_length_b                    33.04227048236311 
_cell_length_c                    32.75137176993077 
_cell_angle_alpha                 89.97006923656593 
_cell_angle_beta                  90.07887586450478 
_cell_angle_gamma                 89.69400371646407 
loop_ 
_atom_site_label 
_atom_site_type_symbol 
_atom_site_fract_x 
_atom_site_fract_y 
_atom_site_fract_z 
_atom_site_charge 
O1          O  0.07129851  0.00013512  0.53390948    -0.88600
C2          C  0.99326870  0.90641400  0.51079888     0.87400
Mg3        Mg  0.05371568  0.04939156  0.57274101     1.58100
O4          O  0.00017647  0.97591386  0.42972195    -0.88300
O5          O  0.08742898  0.99269370  0.46950383    -0.75600
C6          C  0.86875789  0.10651382  0.51145878     0.92500
O7          O  0.00505770  0.96018011  0.59416974    -0.75500
O8          O  0.89065577  0.10259845  0.54331249    -0.83000
Mg9        Mg  0.06118015  0.93972762  0.55731190     1.58000
C10         C  0.89320606  0.01218296  0.36951483     0.92400
O11         O  0.11798972  0.91056683  0.52653216    -0.81200
H12         H  0.03254599  0.00261043  0.38566816    -0.06600
C13         C  0.90172392  0.99017352  0.50294918     0.87400
O14         O  0.03412321  0.08760772  0.51684346    -0.75700
O15         O  0.02378586  0.92743047  0.50465431    -0.88500
O16         O  0.91434740  0.98062361  0.37765070    -0.81300
C17         C  0.99093775  0.87393621  0.39427125     0.92500
C18         C  0.12685412  0.89410988  0.49235977     0.92400
Mg19       Mg  0.93300631  0.05827090  0.44821547     1.58000
O20         O  0.87702574  0.08789403  0.47840139    -0.81200
O21         O  0.98829465  0.03800263  0.41053894    -0.75500
O22         O  0.02228872  0.88366806  0.41501264    -0.81300
O23         O  0.09959388  0.95330919  0.61373292    -0.83000
O24         O  0.97379459  0.11683860  0.58897907    -0.81300
C25         C  0.00786197  0.00498154  0.40745195     0.86800
O26         O  0.97131963  0.07121618  0.50066283    -0.88500
O27         O  0.92326271  0.99852472  0.47319906    -0.88600
O28         O  0.90603361  0.00792463  0.53702809    -0.75600
Mg29       Mg  0.05106169  0.93863521  0.44559768     1.58000
O30         O  0.95863141  0.89553899  0.39437161    -0.83000
H31         H  0.11383442  0.03391937  0.50684748    -0.06700
O32         O  0.99376819  0.02308351  0.57686076    -0.88300
H33         H  0.96033304  0.99494332  0.61917458    -0.06600
H34         H  0.00217732  0.11396552  0.47066448    -0.06700
C35         C  0.98550122  0.99322367  0.59789085     0.86800
C36         C  0.09215383  0.00952066  0.50399102     0.87400
C37         C  0.00214071  0.09199305  0.49512998     0.87400
H38         H  0.87964005  0.96610073  0.50030276    -0.06700
O39         O  0.96060924  0.91100927  0.49028857    -0.75800
Mg40       Mg  0.94362006  0.06172621  0.55985620     1.58000
H41         H  0.99398830  0.88432429  0.53516348    -0.06700
C42         C  0.09954432  0.98350469  0.63800152     0.92400
O43         O  0.03555631  0.10272171  0.61364329    -0.83000
C44         C  0.00421536  0.12566067  0.61148286     0.92500
O45         O  0.10488255  0.89929307  0.46079669    -0.83000
Mg46       Mg  0.94068230  0.94886706  0.43477357     1.58200
O47         O  0.08016053  0.01619257  0.62960888    -0.81300
O48         O  0.89272880  0.04286510  0.39318042    -0.83000
O49         O  0.02710982  0.44778775  0.95515324    -0.88600
C50         C  0.02848050  0.57004147  0.93747956     0.87400
Mg51       Mg  0.97097199  0.41414587  0.95903158     1.58100
O52         O  0.05248241  0.53937559  0.03756197    -0.88300
O53         O  0.08201896  0.45892151  0.99152135    -0.75600
C54         C  0.85528495  0.51555914  0.09070474     0.92500
O55         O  0.96379248  0.50259415  0.90398084    -0.75500
O56         O  0.85178456  0.49505709  0.05798725    -0.83000
Mg57       Mg  0.03261514  0.48866849  0.90408073     1.58000
C58         C  0.99578345  0.59991654  0.13527212     0.92400
O59         O  0.10149951  0.47802377  0.89384434    -0.81200
H60         H  0.08747940  0.50806923  0.07652412    -0.06600
C61         C  0.93393620  0.57484252  0.01941356     0.87400
O62         O  0.97339361  0.41500999  0.02903134    -0.75700
O63         O  0.04410525  0.53697352  0.94598944    -0.88500
O64         O  0.01911149  0.60769913  0.10500406    -0.81300
C65         C  0.10785977  0.62699483  0.00525093     0.92500
C66         C  0.13550265  0.49371967  0.90415893     0.92400
Mg67       Mg  0.95817357  0.52033313  0.09036551     1.58000
O68         O  0.88944475  0.53035066  0.10177345    -0.81200
O69         O  0.02699366  0.50692945  0.08975709    -0.75500
O70         O  0.11387565  0.59322260  0.98749187    -0.81300
O71         O  0.02073911  0.43745307  0.86020842    -0.83000
O72         O  0.87514329  0.41732463  0.00570878    -0.81300
C73         C  0.05711320  0.51826428  0.06836043     0.86800
O74         O  0.94620562  0.47255021  0.04802153    -0.88500
O75         O  0.96299951  0.56185594  0.03969716    -0.88600
O76         O  0.90816468  0.55122250  0.00320765    -0.75600
Mg77       Mg  0.09397035  0.52734053  0.98823444     1.58000
O78         O  0.07682524  0.63331677  0.02790517    -0.83000
H79         H  0.05878462  0.40297516  0.98153369    -0.06700
O80         O  0.93785956  0.47112250  0.95656606    -0.88300
H81         H  0.90327099  0.50245484  0.91723179    -0.06600
H82         H  0.96479019  0.43082087  0.08826349    -0.06700
C83         C  0.93350457  0.49200122  0.92555916     0.86800
C84         C  0.05609213  0.43508667  0.97578258     0.87400
C85         C  0.96104143  0.43915323  0.05653734     0.87400
H86         H  0.93116914  0.60705006  0.01420136    -0.06700
O87         O  0.01578174  0.59406573  0.96496296    -0.75800
Mg88       Mg  0.89629014  0.48294451  0.00590172     1.58000
H89         H  0.02428823  0.57814861  0.90574746    -0.06700
C90         C  0.99423471  0.40945095  0.85933766     0.92400
O91         O  0.91189168  0.37782587  0.96450798    -0.83000
C92         C  0.88046315  0.38417985  0.98657057     0.92500
O93         O  0.13887208  0.51517742  0.93625979    -0.83000
Mg94       Mg  0.01854865  0.59596711  0.03498789     1.58200
O95         O  0.97007486  0.40315300  0.88922911    -0.81300
O96         O  0.97037146  0.57095632  0.13442578    -0.83000
O97         O  0.52607120  0.43058943  0.49982399    -0.88600
C98         C  0.51528164  0.50576611  0.59879207     0.87400
Mg99       Mg  0.56271194  0.44507575  0.44721612     1.58100
O100        O  0.42821642  0.50144443  0.53595926    -0.88300
O101        O  0.46349820  0.41392739  0.51619427    -0.75600
C102        C  0.50755724  0.63196666  0.40028210     0.92500
O103        O  0.59317133  0.49206636  0.53624296    -0.75500
O104        O  0.53875209  0.60893314  0.39834987    -0.83000
Mg105      Mg  0.55575076  0.43783468  0.55826363     1.58000
C106        C  0.37201019  0.60954981  0.49988367     0.92400
O107        O  0.52579974  0.38201841  0.58638587    -0.81200
H108        H  0.38449235  0.46937295  0.50850435    -0.06600
C109        C  0.50619943  0.59530679  0.51511746     0.87400
O110        O  0.50639800  0.46683913  0.41171236    -0.75700
O111        O  0.50649215  0.47648556  0.57714043    -0.88500
O112        O  0.38104590  0.59035510  0.53256463    -0.81300
C113        C  0.40337355  0.51466016  0.64168179     0.92500
C114        C  0.49555873  0.37312197  0.60902515     0.92400
Mg115      Mg  0.44671773  0.56699839  0.45003654     1.58000
O116        O  0.47654610  0.62295995  0.42183582    -0.81200
O117        O  0.40993999  0.51237955  0.47252167    -0.75500
O118        O  0.42339169  0.48276368  0.63214263    -0.81300
O119        O  0.60778474  0.39701388  0.53898980    -0.83000
O120        O  0.58211673  0.52437960  0.37799159    -0.81300
C121        C  0.40633662  0.49368576  0.50621239     0.86800
O122        O  0.49642579  0.52909053  0.43159897    -0.88500
O123        O  0.47524220  0.57496088  0.50885398    -0.88600
O124        O  0.53826257  0.59103792  0.49369997    -0.75600
Mg125      Mg  0.44628228  0.45099666  0.57334221     1.58000
O126        O  0.40092597  0.54502567  0.61773621    -0.83000
H127        H  0.49480368  0.38858105  0.46914219    -0.06700
O128        O  0.57366841  0.50384629  0.47344619    -0.88300
H129        H  0.61849356  0.53503114  0.50014092    -0.06600
H130        H  0.46206238  0.50330838  0.38843526    -0.06700
C131        C  0.59633928  0.51103166  0.50270667     0.86800
C132        C  0.49519316  0.40993934  0.49413442     0.87400
C133        C  0.48745566  0.50030967  0.40940708     0.87400
H134        H  0.50636884  0.61654860  0.54022078    -0.06700
O135        O  0.49553960  0.53886608  0.59653574    -0.75800
Mg136      Mg  0.55661127  0.55462301  0.43664497     1.58000
H137        H  0.54098214  0.50346640  0.61946086    -0.06700
C138        C  0.62904661  0.39512765  0.50658122     0.92400
O139        O  0.60129902  0.46113358  0.39222580    -0.83000
C140        C  0.60212297  0.49224843  0.36929437     0.92500
O141        O  0.46470188  0.39652772  0.61221213    -0.83000
Mg142      Mg  0.43860413  0.56067699  0.56142429     1.58200
O143        O  0.61987285  0.41562391  0.47491981    -0.81300
O144        O  0.39390406  0.60691905  0.46798881    -0.83000
O145        O  0.47569054  0.99263046  0.92384905    -0.88600
C146        C  0.50271758  0.08489999  0.00186982     0.87400
Mg147      Mg  0.43577941  0.94398516  0.94020680     1.58100
O148        O  0.58145419  0.01326820  0.98757802    -0.88300
O149        O  0.53780254  0.00262432  0.90156142    -0.75600
C150        C  0.49909808  0.88590984  0.12431584     0.89300
O151        O  0.41819716  0.03228857  0.99273963    -0.75500
O152        O  0.46648654  0.88635414  0.10303958    -0.83000
Mg153      Mg  0.45282146  0.05272802  0.93550082     1.58000
C154        C  0.64311818  0.97041492  0.09162219     0.92400
O155        O  0.48118248  0.07958958  0.87780651    -0.81200
H156        H  0.62006714  0.98272348  0.95154413    -0.06600
C157        C  0.51014238  0.99786441  0.08889806     0.87400
O158        O  0.49033305  0.90296646  0.95647639    -0.75700
O159        O  0.50705197  0.06456679  0.97052199    -0.88500
O160        O  0.63618071  0.00209940  0.07047373    -0.81300
C161        C  0.62100842  0.11266713  0.00266501     0.92500
C162        C  0.51283491  0.09927206  0.86730113     0.92400
Mg163      Mg  0.56078524  0.92912401  0.05494319     1.58000
O164        O  0.53134741  0.90386526  0.11261300    -0.81200
O165        O  0.59573813  0.94908592  0.99729341    -0.75500
O166        O  0.59827859  0.10835811  0.97120979    -0.81300
O167        O  0.39505883  0.04102408  0.89850231    -0.83000
O168        O  0.41595729  0.87396760  0.01900254    -0.81300
C169        C  0.60013070  0.98210277  0.97784314     0.86800
O170        O  0.50690637  0.91687500  0.01964380    -0.88500
O171        O  0.53817791  0.98910260  0.06522734    -0.88600
O172        O  0.47569396  0.98047851  0.08703252    -0.75600
Mg173      Mg  0.56444201  0.05485964  0.93958640     1.58000
O174        O  0.62030691  0.08768163  0.03211965    -0.83000
H175        H  0.49919017  0.96123229  0.87721348    -0.06700
O176        O  0.43256144  0.96806069  0.00121832    -0.88300
H177        H  0.39339716  0.99766619  0.03737541    -0.06600
H178        H  0.53503856  0.87343458  0.98766854    -0.06700
C179        C  0.41355061  0.99887848  0.01128019     0.86800
C180        C  0.50361975  0.98469558  0.89975831     0.87400
C181        C  0.51152230  0.89651301  0.98834304     0.87400
H182        H  0.51468913  0.02170044  0.11101447    -0.06700
O183        O  0.52421323  0.07839533  0.03351144    -0.75800
Mg184      Mg  0.44920888  0.92768482  0.04991060     1.58000
H185        H  0.47925482  0.10802367  0.00276596    -0.06700
C186        C  0.37044435  0.01131839  0.89835738     0.92400
O187        O  0.39404207  0.89269421  0.95733268    -0.83000
C188        C  0.39351820  0.86851852  0.98755217     0.92500
O189        O  0.54572207  0.09796414  0.88817094    -0.83000
Mg190      Mg  0.57866958  0.03691151  0.04876868     1.58200
O191        O  0.37889449  0.97833806  0.91682249    -0.81300
O192        O  0.61760598  0.94155079  0.09326246    -0.83000
C193        C  0.50570088  0.66895846  0.37479177    -0.03400
C194        C  0.47079182  0.69392546  0.37565324    -0.06000
C195        C  0.46606245  0.72537057  0.34754357    -0.21100
C196        C  0.49622625  0.73292688  0.31824561     0.24600
C197        C  0.53188466  0.70888806  0.31821902    -0.18700
C198        C  0.53660157  0.67733151  0.34631999    -0.08700
C199        C  0.48800669  0.76391957  0.28641211    -0.18900
C200        C  0.51771157  0.78255498  0.26541591    -0.23700
C201        C  0.50979386  0.81151556  0.23164055     0.26700
C202        C  0.54071540  0.83867790  0.22105933    -0.20500
C203        C  0.53635598  0.86398740  0.18724529    -0.10100
C204        C  0.50100690  0.86246372  0.16284208    -0.10700
C205        C  0.46940670  0.83610282  0.17404781    -0.03600
C206        C  0.47377511  0.81073009  0.20805003    -0.18700
H207        H  0.44633330  0.68831172  0.39713361     0.10400
H208        H  0.43829778  0.74333245  0.34812567     0.10400
H209        H  0.55539611  0.71302470  0.29544513     0.10100
H210        H  0.56367493  0.65845647  0.34457913     0.11200
H211        H  0.45633780  0.77211825  0.28081781     0.11300
H212        H  0.54939005  0.77719146  0.27375448     0.13200
H213        H  0.56876807  0.83980927  0.23862106     0.09700
H214        H  0.56128892  0.88400340  0.17961503     0.11800
H215        H  0.44195192  0.83398226  0.15569986     0.08400
H216        H  0.44965111  0.78948703  0.21460027     0.11200
C217        C  0.49816082  0.33561425  0.63391104    -0.03400
C218        C  0.53361248  0.31140804  0.63236086    -0.06000
C219        C  0.53889076  0.27895227  0.65916720    -0.21100
C220        C  0.50874436  0.26942560  0.68787856     0.24600
C221        C  0.47260857  0.29276655  0.68874553    -0.18700
C222        C  0.46738634  0.32551576  0.66198082    -0.08700
C223        C  0.51752003  0.23681126  0.71798222    -0.18900
C224        C  0.48838756  0.21614608  0.73787728    -0.23700
C225        C  0.49755774  0.18431417  0.76871329     0.26700
C226        C  0.46815626  0.15457517  0.77621412    -0.20500
C227        C  0.47416442  0.12576101  0.80686561    -0.10100
C228        C  0.50963893  0.12623258  0.83117422    -0.10700
C229        C  0.53961353  0.15544308  0.82309198    -0.03600
C230        C  0.53360763  0.18429393  0.79227153    -0.18700
H231        H  0.55806066  0.31826973  0.61123723     0.10400
H232        H  0.56701045  0.26159882  0.65791046     0.10400
H233        H  0.44902752  0.28697598  0.71108369     0.10100
H234        H  0.43989457  0.34370457  0.66421911     0.11200
H235        H  0.54932697  0.22868499  0.72276524     0.11300
H236        H  0.45652934  0.22151265  0.73033516     0.13200
H237        H  0.44010513  0.15397974  0.75865461     0.09700
H238        H  0.45034700  0.10377672  0.81226079     0.11800
H239        H  0.56697629  0.15702607  0.84161077     0.08400
H240        H  0.55651504  0.20740647  0.78816807     0.11200
C241        C  0.84751561  0.35369853  0.98866572    -0.03400
C242        C  0.80768604  0.36620202  0.99891548    -0.06000
C243        C  0.77546942  0.33877226  0.99877526    -0.21100
C244        C  0.78239235  0.29798416  0.98950351     0.24600
C245        C  0.82224973  0.28506701  0.97971736    -0.18700
C246        C  0.85451070  0.31283310  0.97890115    -0.08700
C247        C  0.74709109  0.27011053  0.98893561    -0.18900
C248        C  0.74969158  0.23179018  0.00238771    -0.23700
C249        C  0.71413177  0.20415131  0.00371670     0.26700
C250        C  0.71330706  0.17388627  0.03363808    -0.20500
C251        C  0.68190769  0.14551283  0.03431720    -0.10100
C252        C  0.65090677  0.14620135  0.00449168    -0.10700
C253        C  0.65118142  0.17708131  0.97495658    -0.03600
C254        C  0.68241691  0.20592860  0.97466323    -0.18700
H255        H  0.80112746  0.39756484  0.00611314     0.10400
H256        H  0.74501904  0.34941227  0.00615791     0.10400
H257        H  0.82826264  0.25380958  0.97169794     0.10100
H258        H  0.88479316  0.30241801  0.97062812     0.11200
H259        H  0.71755838  0.28248018  0.98018707     0.11300
H260        H  0.77840826  0.22095179  0.01509071     0.13200
H261        H  0.73736034  0.17187925  0.05630233     0.09700
H262        H  0.68284068  0.12207881  0.05744728     0.11800
H263        H  0.62788290  0.17834637  0.95149552     0.08400
H264        H  0.68254656  0.22851575  0.95071898     0.11200
C265        C  0.13913453  0.65871186  0.00004086    -0.03400
C266        C  0.12976788  0.69992002  0.00513232    -0.06000
C267        C  0.16004903  0.72927014  0.99970232    -0.21100
C268        C  0.20033311  0.71783386  0.99019286     0.24600
C269        C  0.20950326  0.67661427  0.98481085    -0.18700
C270        C  0.17925000  0.64746326  0.98957440    -0.08700
C271        C  0.23209397  0.74935070  0.98524997    -0.18900
C272        C  0.27168684  0.74259783  0.99447270    -0.23700
C273        C  0.30356671  0.77410669  0.99088269     0.26700
C274        C  0.33686243  0.77331351  0.01790728    -0.20500
C275        C  0.36673482  0.80338056  0.01631210    -0.10100
C276        C  0.36434769  0.83436640  0.98699111    -0.10700
C277        C  0.33189287  0.83407551  0.95876034    -0.03600
C278        C  0.30173436  0.80435953  0.96076757    -0.18700
H279        H  0.09902088  0.70943456  0.01284496     0.10400
H280        H  0.15218013  0.76090537  0.00353820     0.10400
H281        H  0.23990919  0.66677751  0.97628628     0.10100
H282        H  0.18741673  0.61594072  0.98537199     0.11200
H283        H  0.22221440  0.77943721  0.97611056     0.11300
H284        H  0.28073105  0.71380306  0.00775356     0.13200
H285        H  0.33917586  0.74996852  0.04102492     0.09700
H286        H  0.39139715  0.80266046  0.03838387     0.11800
H287        H  0.32914391  0.85747412  0.93574798     0.08400
H288        H  0.27710493  0.80508190  0.93867679     0.11200
C289        C  0.38069699  0.51527793  0.68089171    -0.03400
C290        C  0.39199486  0.48937538  0.71315189    -0.06000
C291        C  0.36790120  0.48675720  0.74839257    -0.21100
C292        C  0.33145877  0.50905015  0.75156424     0.24600
C293        C  0.32101005  0.53617181  0.72004861    -0.18700
C294        C  0.34552770  0.53945721  0.68523261    -0.08700
C295        C  0.30413283  0.50284657  0.78729528    -0.18900
C296        C  0.26327209  0.50127029  0.78275607    -0.23700
C297        C  0.23356969  0.49427541  0.81639969     0.26700
C298        C  0.19473259  0.47979998  0.80604810    -0.20500
C299        C  0.16390364  0.47711664  0.83531205    -0.10100
C300        C  0.17077558  0.48961783  0.87577072    -0.10700
C301        C  0.21020153  0.50264185  0.88670179    -0.03600
C302        C  0.24142430  0.50473020  0.85734739    -0.18700
H303        H  0.41909593  0.47058918  0.71081658     0.10400
H304        H  0.37682847  0.46601976  0.77246094     0.10400
H305        H  0.29360022  0.55453454  0.72211386     0.10100
H306        H  0.33603090  0.55972942  0.66097469     0.11200
H307        H  0.31788788  0.49642468  0.81677767     0.11300
H308        H  0.25070274  0.50381346  0.75212534     0.13200
H309        H  0.18780658  0.47154881  0.77479594     0.09700
H310        H  0.13396951  0.46715965  0.82559016     0.11800
H311        H  0.21649221  0.51263326  0.91754641     0.08400
H312        H  0.27086526  0.51649007  0.86636052     0.11200
C313        C  0.81953465  0.52005728  0.11831427    -0.03400
C314        C  0.77987388  0.51052190  0.10499927    -0.06000
C315        C  0.74707110  0.51064977  0.13248064    -0.21100
C316        C  0.75338948  0.51922185  0.17397916     0.24600
C317        C  0.79277720  0.52989311  0.18711539    -0.18700
C318        C  0.82538845  0.53053824  0.15956110    -0.08700
C319        C  0.71859411  0.51677925  0.20303601    -0.18900
C320        C  0.72323090  0.50237126  0.24126275    -0.23700
C321        C  0.68915187  0.49808462  0.27089880     0.26700
C322        C  0.69169214  0.46754867  0.30057114    -0.20500
C323        C  0.66201751  0.46428530  0.33101625    -0.10100
C324        C  0.62951085  0.49218495  0.33316165    -0.10700
C325        C  0.62649956  0.52242214  0.30299758    -0.03600
C326        C  0.65587226  0.52519043  0.27197544    -0.18700
H327        H  0.77430809  0.50233036  0.07348332     0.10400
H328        H  0.71691186  0.50271754  0.12157186     0.10400
H329        H  0.79843523  0.53765927  0.21872614     0.10100
H330        H  0.85551051  0.53796413  0.17093441     0.11200
H331        H  0.68823522  0.52416540  0.19180559     0.11300
H332        H  0.75304340  0.49112860  0.25068995     0.13200
H333        H  0.71712924  0.44643842  0.30054858     0.09700
H334        H  0.66560965  0.44094094  0.35398721     0.11800
H335        H  0.60203161  0.54458778  0.30399362     0.08400
H336        H  0.65343265  0.54955563  0.24999872     0.11200
C337        C  0.83441298  0.13575220  0.51204202    -0.03400
C338        C  0.81743862  0.14840697  0.54927146    -0.06000
C339        C  0.78841330  0.17950146  0.55021935    -0.21100
C340        C  0.77655011  0.19933069  0.51420108     0.24600
C341        C  0.79267199  0.18607978  0.47672349    -0.18700
C342        C  0.82117305  0.15437548  0.47567468    -0.08700
C343        C  0.74718141  0.23345630  0.51723144    -0.18900
C344        C  0.74746136  0.26571338  0.49203641    -0.23700
C345        C  0.71962722  0.30105173  0.49732218     0.26700
C346        C  0.70205354  0.31078140  0.53532032    -0.20500
C347        C  0.67414427  0.34267524  0.53872096    -0.10100
C348        C  0.66348764  0.36596334  0.50442357    -0.10700
C349        C  0.68294197  0.35784953  0.46698862    -0.03600
C350        C  0.71078765  0.32576894  0.46356037    -0.18700
H351        H  0.82708031  0.13468297  0.57774668     0.10400
H352        H  0.77609412  0.18897906  0.57940744     0.10400
H353        H  0.78333131  0.20005145  0.44829597     0.10100
H354        H  0.83394031  0.14542212  0.44652244     0.11200
H355        H  0.72595181  0.23253215  0.54260126     0.11300
H356        H  0.76861734  0.26634046  0.46651516     0.13200
H357        H  0.70952553  0.29388876  0.56259865     0.09700
H358        H  0.66009478  0.34838317  0.56810348     0.11800
H359        H  0.67550616  0.37525635  0.43993584     0.08400
H360        H  0.72447143  0.31944150  0.43411091     0.11200
C361        C  0.16192802  0.86574905  0.48950987    -0.03400
C362        C  0.17632506  0.85308835  0.45110167    -0.06000
C363        C  0.20495813  0.82172439  0.44797910    -0.21100
C364        C  0.21923371  0.80180644  0.48306046     0.24600
C365        C  0.20638778  0.81571471  0.52160503    -0.18700
C366        C  0.17808373  0.84743961  0.52477433    -0.08700
C367        C  0.24765514  0.76692626  0.47834274    -0.18900
C368        C  0.24908106  0.73581131  0.50498893    -0.23700
C369        C  0.27797154  0.70104219  0.50160770     0.26700
C370        C  0.29692164  0.69006476  0.46465646    -0.20500
C371        C  0.32603466  0.65894980  0.46376086    -0.10100
C372        C  0.33669896  0.63790202  0.49963085    -0.10700
C373        C  0.31603690  0.64736148  0.53599457    -0.03600
C374        C  0.28693747  0.67848949  0.53687844    -0.18700
H375        H  0.16461037  0.86669717  0.42331891     0.10400
H376        H  0.21488974  0.81202960  0.41798948     0.10400
H377        H  0.21796226  0.80206459  0.54937453     0.10100
H378        H  0.16764879  0.85650474  0.55477381     0.11200
H379        H  0.26708659  0.76678955  0.45157278     0.11300
H380        H  0.22905607  0.73626714  0.53137031     0.13200
H381        H  0.28973374  0.70545686  0.43640069     0.09700
H382        H  0.34101281  0.65214930  0.43508519     0.11800
H383        H  0.32341394  0.63176628  0.56415699     0.08400
H384        H  0.27237223  0.68589034  0.56562257     0.11200
C385        C  0.12454485  0.98159311  0.67601684    -0.03400
C386        C  0.14723793  0.94663393  0.68587546    -0.06000
C387        C  0.17434878  0.94653898  0.71902189    -0.21100
C388        C  0.17983523  0.98143323  0.74286443     0.24600
C389        C  0.15570058  0.01577935  0.73426025    -0.18700
C390        C  0.12846793  0.01584113  0.70123408    -0.08700
C391        C  0.21115509  0.98089888  0.77603631    -0.18900
C392        C  0.23000612  0.01450611  0.78987568    -0.23700
C393        C  0.26405160  0.01401761  0.82024674     0.26700
C394        C  0.27027871  0.98190744  0.84786373    -0.20500
C395        C  0.30392039  0.98184424  0.87434408    -0.10100
C396        C  0.33203921  0.01393315  0.87410025    -0.10700
C397        C  0.32473515  0.04683764  0.84779240    -0.03600
C398        C  0.29109931  0.04688400  0.82132484    -0.18700
H399        H  0.14488720  0.91961463  0.66733937     0.10400
H400        H  0.19207183  0.91944807  0.72526295     0.10400
H401        H  0.15780749  0.04276904  0.75279065     0.10100
H402        H  0.11121925  0.04317989  0.69487444     0.11200
H403        H  0.22120479  0.95145690  0.78688521     0.11300
H404        H  0.22249226  0.04351863  0.77619634     0.13200
H405        H  0.24940840  0.95668477  0.84913414     0.09700
H406        H  0.30833837  0.95616662  0.89445590     0.11800
H407        H  0.34569992  0.07206082  0.84671448     0.08400
H408        H  0.28684705  0.07225372  0.80076849     0.11200
C409        C  0.86632569  0.01143795  0.33290427    -0.03400
C410        C  0.83112035  0.03591122  0.33119776    -0.06000
C411        C  0.80216801  0.03054447  0.30017128    -0.21100
C412        C  0.80820878  0.00140292  0.26954503     0.24600
C413        C  0.84421662  0.97804792  0.27017118    -0.18700
C414        C  0.87279556  0.98280712  0.30169938    -0.08700
C415        C  0.77499325  0.99387387  0.23948300    -0.18900
C416        C  0.78162879  0.98234088  0.20058510    -0.23700
C417        C  0.74735535  0.97609836  0.17149738     0.26700
C418        C  0.74939446  0.99255875  0.13204943    -0.20500
C419        C  0.71601259  0.98963180  0.10536882    -0.10100
C420        C  0.68057015  0.96880763  0.11712303    -0.10700
C421        C  0.67957205  0.95026425  0.15575878    -0.03600
C422        C  0.71242335  0.95429742  0.18287754    -0.18700
H423        H  0.82491718  0.05785531  0.35498600     0.10400
H424        H  0.77456340  0.04875035  0.30048163     0.10400
H425        H  0.84943265  0.95481872  0.24743632     0.10100
H426        H  0.89943711  0.96325402  0.30229135     0.11200
H427        H  0.74382417  0.99979597  0.24927999     0.11300
H428        H  0.81265238  0.98042456  0.18903284     0.13200
H429        H  0.77617266  0.00917377  0.12252091     0.09700
H430        H  0.71759074  0.00425456  0.07581180     0.11800
H431        H  0.65256389  0.93430174  0.16577469     0.08400
H432        H  0.71041436  0.94069400  0.21289643     0.11200
C433        C  0.99577355  0.62710590  0.17134121    -0.03400
C434        C  0.96568719  0.62283377  0.20168453    -0.06000
C435        C  0.96134137  0.65175578  0.23249518    -0.21100
C436        C  0.98724540  0.68534876  0.23418139     0.24600
C437        C  0.01808954  0.68918342  0.20447891    -0.18700
C438        C  0.02232008  0.66032068  0.17347132    -0.08700
C439        C  0.97975611  0.71668444  0.26595359    -0.18900
C440        C  0.00893631  0.74190218  0.27943871    -0.23700
C441        C  0.00214629  0.77368959  0.31086871     0.26700
C442        C  0.03629871  0.78890522  0.33147666    -0.20500
C443        C  0.03220088  0.82030654  0.35962080    -0.10100
C444        C  0.99378357  0.83783288  0.36752177    -0.10700
C445        C  0.95934448  0.82244199  0.34723194    -0.03600
C446        C  0.96342297  0.79059873  0.31920970    -0.18700
H447        H  0.94439248  0.59787846  0.20084115     0.10400
H448        H  0.93722636  0.64815366  0.25480395     0.10400
H449        H  0.03799171  0.71519023  0.20398263     0.10100
H450        H  0.04545710  0.66482726  0.15034221     0.11200
H451        H  0.94963495  0.71770923  0.27971108     0.11300
H452        H  0.03991180  0.73820818  0.26824109     0.13200
H453        H  0.06647346  0.77670007  0.32546592     0.09700
H454        H  0.05949796  0.83164074  0.37430778     0.11800
H455        H  0.92940466  0.83553239  0.35238764     0.08400
H456        H  0.93644445  0.78040736  0.30324575     0.11200
C457        C  0.00105392  0.16245551  0.63739620    -0.03400
C458        C  0.96411522  0.18444005  0.63839595    -0.06000
C459        C  0.95861385  0.21635308  0.66572457    -0.21100
C460        C  0.99007163  0.22780850  0.69220569     0.24600
C461        C  0.02750929  0.20664053  0.69078243    -0.18700
C462        C  0.03289138  0.17415342  0.66368334    -0.08700
C463        C  0.98186900  0.26065129  0.72206589    -0.18900
C464        C  0.01082536  0.28616031  0.73537499    -0.23700
C465        C  0.00258814  0.31966849  0.76459644     0.26700
C466        C  0.02894535  0.35296476  0.76497248    -0.20500
C467        C  0.02450089  0.38354395  0.79411170    -0.10100
C468        C  0.99383705  0.38125333  0.82405993    -0.10700
C469        C  0.96646506  0.34860802  0.82282446    -0.03600
C470        C  0.97078125  0.31810209  0.79345887    -0.18700
H471        H  0.93877751  0.17628070  0.61881995     0.10400
H472        H  0.92949486  0.23206511  0.66632575     0.10400
H473        H  0.05211873  0.21421606  0.71147038     0.10100
H474        H  0.06154694  0.15765233  0.66399096     0.11200
H475        H  0.95035318  0.26545238  0.73121942     0.11300
H476        H  0.04150164  0.28362521  0.72299878     0.13200
H477        H  0.05368332  0.35491070  0.74312133     0.09700
H478        H  0.04630155  0.40806169  0.79423159     0.11800
H479        H  0.94273476  0.34567723  0.84563799     0.08400
H480        H  0.95034220  0.29253768  0.79474011     0.11200
loop_ 
_geom_bond_atom_site_label_1 
_geom_bond_atom_site_label_2 
_geom_bond_distance 
_geom_bond_site_symmetry_2 
_ccdc_geom_bond_type 
O1           Mg3   2.143       .  S
O1           Mg9   2.165   1_545  S
O1           C36   1.236       .  S
C2           O15   1.237   1_655  S
C2           O39   1.270       .  A
C2           H41   1.081       .  S
Mg3          O32   2.155   1_455  S
Mg3          O47   2.325       .  S
Mg3          O43   2.291       .  S
Mg3          O14   2.312       .  S
O4          Mg46   2.154   1_455  S
O4          Mg29   2.130       .  S
O4           C25   1.233   1_565  S
O5           C36   1.269   1_565  A
O5          Mg29   2.290       .  S
C6            O8   1.271       .  A
C6           O20   1.274       .  A
C6          C337   1.479       .  S
O7           C35   1.269   1_455  A
O7           Mg9   2.299       .  S
O8          Mg40   2.258       .  S
Mg9          O15   2.154       .  S
Mg9          O23   2.280       .  S
Mg9          O11   2.322       .  S
C10          O48   1.277       .  A
C10          O16   1.276   1_545  A
C10         C409   1.487       .  S
O11          C18   1.278       .  A
H12          C25   1.081       .  S
C13          O27   1.236       .  S
C13          O28   1.269   1_565  A
C13          H38   1.081       .  S
O14          C37   1.273       .  A
O15         Mg29   2.164       .  S
O16         Mg46   2.308       .  S
C17          O30   1.273       .  A
C17          O22   1.273   1_655  A
C17         C444   1.483       .  S
C18          O45   1.270       .  A
C18         C361   1.481       .  S
Mg19         O26   2.170       .  S
Mg19         O27   2.162   1_545  S
Mg19         O20   2.298       .  S
Mg19         O21   2.290       .  S
Mg19         O48   2.291       .  S
O21          C25   1.267   1_655  A
O22         Mg29   2.282       .  S
O23          C42   1.276       .  A
O24          C44   1.273   1_655  A
O24         Mg40   2.285       .  S
O26         Mg40   2.165       .  S
O26          C37   1.237   1_655  S
O27         Mg46   2.144       .  S
O28         Mg40   2.293       .  S
Mg29         O45   2.240       .  S
O30         Mg46   2.279       .  S
H31          C36   1.081       .  S
O32         Mg40   2.147       .  S
O32          C35   1.234   1_545  S
H33          C35   1.081       .  S
H34          C37   1.081       .  S
O39         Mg46   2.298       .  S
C42          O47   1.279   1_565  A
C42         C385   1.490       .  S
O43          C44   1.274       .  A
C44         C457   1.486       .  S
O49         Mg51   2.157   1_455  S
O49         Mg57   2.158       .  S
O49          C84   1.236       .  S
C50          O63   1.236       .  S
C50          O87   1.269       .  A
C50          H89   1.081       .  S
Mg51         O80   2.169       .  S
Mg51         O95   2.315       .  S
Mg51         O91   2.289       .  S
Mg51         O62   2.294   1_556  S
O52         Mg94   2.172       .  S
O52         Mg77   2.148   1_554  S
O52          C73   1.235       .  S
O53          C84   1.270       .  A
O53         Mg77   2.299       .  S
C54          O56   1.273       .  A
C54          O68   1.275       .  A
C54         C313   1.487       .  S
O55          C83   1.269       .  A
O55         Mg57   2.298   1_655  S
O56         Mg88   2.279       .  S
Mg57         O63   2.140       .  S
Mg57         O71   2.256       .  S
Mg57         O59   2.306       .  S
C58          O96   1.272       .  A
C58          O64   1.279   1_655  A
C58         C433   1.484       .  S
O59          C66   1.276       .  A
H60          C73   1.081       .  S
C61          O75   1.235       .  S
C61          O76   1.269       .  A
C61          H86   1.081       .  S
O62          C85   1.269       .  A
O63         Mg77   2.161       .  S
O64         Mg94   2.326       .  S
C65          O78   1.275       .  A
C65          O70   1.273   1_554  A
C65         C265   1.479       .  S
C66          O93   1.273       .  A
C66         C300   1.489       .  S
Mg67         O74   2.139       .  S
Mg67         O75   2.159       .  S
Mg67         O68   2.304       .  S
Mg67         O69   2.294   1_655  S
Mg67         O96   2.247       .  S
O69          C73   1.269       .  A
O70         Mg77   2.276       .  S
O71          C90   1.272   1_455  A
O72          C92   1.273   1_554  A
O72         Mg88   2.280       .  S
O74         Mg88   2.163       .  S
O74          C85   1.235       .  S
O75         Mg94   2.151   1_655  S
O76         Mg88   2.293       .  S
Mg77         O93   2.285       .  S
O78         Mg94   2.290       .  S
H79          C84   1.081       .  S
O80         Mg88   2.149   1_556  S
O80          C83   1.235       .  S
H81          C83   1.081       .  S
H82          C85   1.081       .  S
O87         Mg94   2.296   1_556  S
C90          O95   1.277       .  A
C90         C468   1.485       .  S
O91          C92   1.275       .  A
C92         C241   1.481       .  S
O97         Mg99   2.156       .  S
O97        Mg105   2.159       .  S
O97         C132   1.237       .  S
C98         O111   1.235       .  S
C98         O135   1.270       .  A
C98         H137   1.082       .  S
Mg99        O128   2.155       .  S
Mg99        O143   2.291       .  S
Mg99        O139   2.266       .  S
Mg99        O110   2.291       .  S
O100       Mg142   2.156       .  S
O100       Mg125   2.148       .  S
O100        C121   1.236       .  S
O101        C132   1.272       .  A
O101       Mg125   2.306       .  S
C102        O104   1.272       .  A
C102        O116   1.274       .  A
C102        C193   1.481       .  S
O103        C131   1.269       .  A
O103       Mg105   2.293       .  S
O104       Mg136   2.263       .  S
Mg105       O111   2.144       .  S
Mg105       O119   2.258       .  S
Mg105       O107   2.287       .  S
C106        O144   1.271       .  A
C106        O112   1.277       .  A
C106        C372   1.484       .  S
O107        C114   1.273       .  A
H108        C121   1.081       .  S
C109        O123   1.236       .  S
C109        O124   1.271       .  A
C109        H134   1.081       .  S
O110        C133   1.267       .  A
O111       Mg125   2.152       .  S
O112       Mg142   2.320       .  S
C113        O126   1.275       .  A
C113        O118   1.277       .  A
C113        C289   1.484       .  S
C114        O141   1.274       .  A
C114        C217   1.485       .  S
Mg115       O122   2.137       .  S
Mg115       O123   2.157       .  S
Mg115       O116   2.290       .  S
Mg115       O117   2.297       .  S
Mg115       O144   2.248       .  S
O117        C121   1.270       .  A
O118       Mg125   2.317       .  S
O119        C138   1.272       .  A
O120        C140   1.277       .  A
O120       Mg136   2.320       .  S
O122       Mg136   2.154       .  S
O122        C133   1.234       .  S
O123       Mg142   2.153       .  S
O124       Mg136   2.302       .  S
Mg125       O141   2.282       .  S
O126       Mg142   2.281       .  S
H127        C132   1.081       .  S
O128       Mg136   2.137       .  S
O128        C131   1.235       .  S
H129        C131   1.081       .  S
H130        C133   1.082       .  S
O135       Mg142   2.301       .  S
C138        O143   1.273       .  A
C138        C348   1.481       .  S
O139        C140   1.273       .  A
C140        C324   1.486       .  S
O145       Mg147   2.145       .  S
O145       Mg153   2.153   1_565  S
O145        C180   1.236       .  S
C146        O159   1.235   1_554  S
C146        O183   1.270       .  A
C146        H185   1.081       .  S
Mg147       O176   2.154   1_556  S
Mg147       O191   2.306       .  S
Mg147       O187   2.254       .  S
Mg147       O158   2.298       .  S
O148       Mg190   2.153   1_556  S
O148       Mg173   2.158       .  S
O148        C169   1.237   1_545  S
O149        C180   1.271   1_545  A
O149       Mg173   2.304       .  S
C150        O152   1.274       .  A
C150        O164   1.273       .  A
C150        C204   1.481       .  S
O151        C179   1.270   1_546  A
O151       Mg153   2.295       .  S
O152       Mg184   2.280       .  S
Mg153       O159   2.150       .  S
Mg153       O167   2.280       .  S
Mg153       O155   2.287       .  S
C154        O192   1.272       .  A
C154        O160   1.274   1_565  A
C154        C420   1.483       .  S
O155        C162   1.274       .  A
H156        C169   1.082       .  S
C157        O171   1.236       .  S
C157        O172   1.270       .  A
C157        H182   1.081   1_565  S
O158        C181   1.270       .  A
O159       Mg173   2.159       .  S
O160       Mg190   2.312       .  S
C161        O174   1.270       .  A
C161        O166   1.279   1_554  A
C161        C252   1.484       .  S
C162        O189   1.275       .  A
C162        C228   1.484       .  S
Mg163       O170   2.148       .  S
Mg163       O171   2.139       .  S
Mg163       O164   2.281       .  S
Mg163       O165   2.307   1_554  S
Mg163       O192   2.282       .  S
O165        C169   1.272       .  A
O166       Mg173   2.333       .  S
O167        C186   1.273       .  A
O168        C188   1.278   1_554  A
O168       Mg184   2.320       .  S
O170       Mg184   2.163       .  S
O170        C181   1.236   1_554  S
O171       Mg190   2.137   1_565  S
O172       Mg184   2.300       .  S
Mg173       O189   2.286       .  S
O174       Mg190   2.235       .  S
H175        C180   1.081       .  S
O176       Mg184   2.147       .  S
O176        C179   1.236       .  S
H177        C179   1.081       .  S
H178        C181   1.081       .  S
O183       Mg190   2.298       .  S
C186        O191   1.275   1_545  A
C186        C396   1.489       .  S
O187        C188   1.272       .  A
C188        C276   1.482       .  S
C193        C194   1.406       .  A
C193        C198   1.405       .  A
C194        H207   1.083       .  S
C194        C195   1.396       .  A
C195        H208   1.083       .  S
C195        C196   1.401       .  A
C196        C197   1.409       .  A
C196        C199   1.484       .  S
C197        H209   1.082       .  S
C197        C198   1.398       .  A
C198        H210   1.083       .  S
C199        C200   1.344       .  D
C199        H211   1.086       .  S
C200        C201   1.484       .  S
C200        H212   1.086       .  S
C201        C202   1.400       .  A
C201        C206   1.409       .  A
C202        H213   1.084       .  S
C202        C203   1.394       .  A
C203        H214   1.083       .  S
C203        C204   1.407       .  A
C204        C205   1.405       .  A
C205        H215   1.083       .  S
C205        C206   1.400       .  A
C206        H216   1.081       .  S
C217        C218   1.407       .  A
C217        C222   1.406       .  A
C218        H231   1.084       .  S
C218        C219   1.395       .  A
C219        H232   1.083       .  S
C219        C220   1.401       .  A
C220        C221   1.409       .  A
C220        C223   1.487       .  S
C221        H233   1.082       .  S
C221        C222   1.402       .  A
C222        H234   1.082       .  S
C223        C224   1.345       .  D
C223        H235   1.085       .  S
C224        C225   1.487       .  S
C224        H236   1.085       .  S
C225        C226   1.401       .  A
C225        C230   1.409       .  A
C226        H237   1.083       .  S
C226        C227   1.396       .  A
C227        H238   1.083       .  S
C227        C228   1.408       .  A
C228        C229   1.406       .  A
C229        H239   1.083       .  S
C229        C230   1.401       .  A
C230        H240   1.082       .  S
C241        C242   1.407       .  A
C241        C246   1.405       .  A
C242        H255   1.083   1_556  S
C242        C243   1.394       .  A
C243        H256   1.083   1_556  S
C243        C244   1.399       .  A
C244        C245   1.408       .  A
C244        C247   1.482       .  S
C245        H257   1.083       .  S
C245        C246   1.403       .  A
C246        H258   1.083       .  S
C247        C248   1.343   1_556  D
C247        H259   1.086       .  S
C248        C249   1.484       .  S
C248        H260   1.087       .  S
C249        C250   1.400       .  A
C249        C254   1.409   1_554  A
C250        H261   1.083       .  S
C250        C251   1.395       .  A
C251        H262   1.083       .  S
C251        C252   1.408       .  A
C252        C253   1.406   1_554  A
C253        H263   1.083       .  S
C253        C254   1.402       .  A
C254        H264   1.082       .  S
C265        C266   1.404       .  A
C265        C270   1.406   1_554  A
C266        H279   1.083       .  S
C266        C267   1.402   1_554  A
C267        H280   1.083   1_556  S
C267        C268   1.406       .  A
C268        C269   1.404       .  A
C268        C271   1.485       .  S
C269        H281   1.083       .  S
C269        C270   1.394       .  A
C270        H282   1.083       .  S
C271        C272   1.348       .  D
C271        H283   1.086       .  S
C272        C273   1.483       .  S
C272        H284   1.086   1_556  S
C273        C274   1.403   1_556  A
C273        C278   1.405       .  A
C274        H285   1.083       .  S
C274        C275   1.399       .  A
C275        H286   1.083       .  S
C275        C276   1.405   1_554  A
C276        C277   1.408       .  A
C277        H287   1.083       .  S
C277        C278   1.398       .  A
C278        H288   1.083       .  S
C289        C290   1.407       .  A
C289        C294   1.406       .  A
C290        H303   1.083       .  S
C290        C291   1.402       .  A
C291        H304   1.083       .  S
C291        C292   1.403       .  A
C292        C293   1.407       .  A
C292        C295   1.489       .  S
C293        H305   1.083       .  S
C293        C294   1.400       .  A
C294        H306   1.083       .  S
C295        C296   1.347       .  D
C295        H307   1.085       .  S
C296        C297   1.489       .  S
C296        H308   1.087       .  S
C297        C298   1.402       .  A
C297        C302   1.409       .  A
C298        H309   1.083       .  S
C298        C299   1.396       .  A
C299        H310   1.083       .  S
C299        C300   1.406       .  A
C300        C301   1.409       .  A
C301        H311   1.083       .  S
C301        C302   1.406       .  A
C302        H312   1.082       .  S
C313        C314   1.407       .  A
C313        C318   1.408       .  A
C314        H327   1.083       .  S
C314        C315   1.402       .  A
C315        H328   1.083       .  S
C315        C316   1.404       .  A
C316        C317   1.406       .  A
C316        C319   1.488       .  S
C317        H329   1.083       .  S
C317        C318   1.399       .  A
C318        H330   1.083       .  S
C319        C320   1.347       .  D
C319        H331   1.086       .  S
C320        C321   1.487       .  S
C320        H332   1.087       .  S
C321        C322   1.403       .  A
C321        C326   1.407       .  A
C322        H333   1.084       .  S
C322        C323   1.398       .  A
C323        H334   1.083       .  S
C323        C324   1.406       .  A
C324        C325   1.408       .  A
C325        H335   1.083       .  S
C325        C326   1.403       .  A
C326        H336   1.082       .  S
C337        C338   1.404       .  A
C337        C342   1.407       .  A
C338        H351   1.083       .  S
C338        C339   1.396       .  A
C339        H352   1.084       .  S
C339        C340   1.402       .  A
C340        C341   1.406       .  A
C340        C343   1.482       .  S
C341        H353   1.082       .  S
C341        C342   1.400       .  A
C342        H354   1.083       .  S
C343        C344   1.348       .  D
C343        H355   1.085       .  S
C344        C345   1.488       .  S
C344        H356   1.087       .  S
C345        C346   1.408       .  A
C345        C350   1.403       .  A
C346        H357   1.080       .  S
C346        C347   1.396       .  A
C347        H358   1.083       .  S
C347        C348   1.404       .  A
C348        C349   1.408       .  A
C349        H359   1.083       .  S
C349        C350   1.399       .  A
C350        H360   1.084       .  S
C361        C362   1.407       .  A
C361        C366   1.405       .  A
C362        H375   1.084       .  S
C362        C363   1.398       .  A
C363        H376   1.083       .  S
C363        C364   1.402       .  A
C364        C365   1.408       .  A
C364        C367   1.486       .  S
C365        H377   1.082       .  S
C365        C366   1.400       .  A
C366        H378   1.083       .  S
C367        C368   1.349       .  D
C367        H379   1.084       .  S
C368        C369   1.489       .  S
C368        H380   1.085       .  S
C369        C370   1.408       .  A
C369        C374   1.404       .  A
C370        H381   1.081       .  S
C370        C371   1.399       .  A
C371        H382   1.083       .  S
C371        C372   1.408       .  A
C372        C373   1.405       .  A
C373        H383   1.083       .  S
C373        C374   1.399       .  A
C374        H384   1.083       .  S
C385        C386   1.407       .  A
C385        C390   1.408   1_565  A
C386        H399   1.083       .  S
C386        C387   1.401       .  A
C387        H400   1.083       .  S
C387        C388   1.405       .  A
C388        C389   1.408   1_565  A
C388        C391   1.493       .  S
C389        H401   1.081       .  S
C389        C390   1.401       .  A
C390        H402   1.083       .  S
C391        C392   1.352   1_565  D
C391        H403   1.085       .  S
C392        C393   1.493       .  S
C392        H404   1.085       .  S
C393        C394   1.408   1_545  A
C393        C398   1.405       .  A
C394        H405   1.081       .  S
C394        C395   1.401       .  A
C395        H406   1.083       .  S
C395        C396   1.408   1_565  A
C396        C397   1.406       .  A
C397        H407   1.083       .  S
C397        C398   1.401       .  A
C398        H408   1.083       .  S
C409        C410   1.406       .  A
C409        C414   1.408   1_545  A
C410        H423   1.083       .  S
C410        C411   1.401       .  A
C411        H424   1.083       .  S
C411        C412   1.404       .  A
C412        C413   1.406   1_545  A
C412        C415   1.488   1_545  S
C413        H425   1.083       .  S
C413        C414   1.402       .  A
C414        H426   1.083       .  S
C415        C416   1.348       .  D
C415        H427   1.087       .  S
C416        C417   1.486       .  S
C416        H428   1.086       .  S
C417        C418   1.403       .  A
C417        C422   1.406       .  A
C418        H429   1.083   1_565  S
C418        C419   1.402       .  A
C419        H430   1.083   1_565  S
C419        C420   1.406       .  A
C420        C421   1.406       .  A
C421        H431   1.083       .  S
C421        C422   1.401       .  A
C422        H432   1.083       .  S
C433        C434   1.408       .  A
C433        C438   1.405   1_655  A
C434        H447   1.083       .  S
C434        C435   1.397       .  A
C435        H448   1.084       .  S
C435        C436   1.402       .  A
C436        C437   1.409   1_655  A
C436        C439   1.488       .  S
C437        H449   1.081       .  S
C437        C438   1.400       .  A
C438        H450   1.083       .  S
C439        C440   1.345   1_655  D
C439        H451   1.085       .  S
C440        C441   1.487       .  S
C440        H452   1.085       .  S
C441        C442   1.401       .  A
C441        C446   1.410   1_455  A
C442        H453   1.084       .  S
C442        C443   1.394       .  A
C443        H454   1.083       .  S
C443        C444   1.406   1_455  A
C444        C445   1.406       .  A
C445        H455   1.083       .  S
C445        C446   1.403       .  A
C446        H456   1.081       .  S
C457        C458   1.408   1_455  A
C457        C462   1.407       .  A
C458        H471   1.083       .  S
C458        C459   1.395       .  A
C459        H472   1.083       .  S
C459        C460   1.399       .  A
C460        C461   1.409   1_655  A
C460        C463   1.485       .  S
C461        H473   1.083       .  S
C461        C462   1.404       .  A
C462        H474   1.083       .  S
C463        C464   1.344   1_655  D
C463        H475   1.086       .  S
C464        C465   1.488       .  S
C464        H476   1.087       .  S
C465        C466   1.402       .  A
C465        C470   1.409   1_455  A
C466        H477   1.084       .  S
C466        C467   1.397       .  A
C467        H478   1.083       .  S
C467        C468   1.407   1_455  A
C468        C469   1.407       .  A
C469        H479   1.083       .  S
C469        C470   1.400       .  A
C470        H480   1.081       .  S
