geometry optimzed in LAMMPS
_audit_creation_date              2020-11-30 
_audit_creation_method            'lammps2cif' 
_symmetry_space_group_name_H-M    'P1' 
_symmetry_Int_Tables_number       1 
_symmetry_cell_setting            triclinic 
loop_ 
_symmetry_equiv_pos_as_xyz 
  x,y,z 
_cell_length_a                    48.7927659 
_cell_length_b                    48.78676698155565 
_cell_length_c                    48.7518013579665 
_cell_angle_alpha                 90.1008319553055 
_cell_angle_beta                  90.03803422726659 
_cell_angle_gamma                 90.10292799263642 
loop_ 
_atom_site_label 
_atom_site_type_symbol 
_atom_site_fract_x 
_atom_site_fract_y 
_atom_site_fract_z 
_atom_site_charge 
C1          C  0.82779299  0.80794876  0.60478849     0.03100
C2          C  0.81319024  0.82808757  0.59071148    -0.13100
C3          C  0.78815001  0.83775895  0.60055324     0.00600
C4          C  0.77751595  0.82720618  0.62514844    -0.11600
C5          C  0.79170824  0.80644603  0.63961947     0.03100
C6          C  0.81699910  0.79691127  0.62911265    -0.11000
H7          H  0.82141331  0.83631770  0.57175201     0.08700
H8          H  0.75806961  0.83485624  0.63260867     0.06200
H9          H  0.82834116  0.78108581  0.63974044     0.06100
C10         C  0.79192984  0.73481729  0.71193072     0.03100
C11         C  0.81553710  0.72232731  0.70044794    -0.13100
C12         C  0.82579760  0.69768991  0.71139239     0.00600
C13         C  0.81301248  0.68601342  0.73414874    -0.11600
C14         C  0.78980327  0.69784631  0.74583137     0.03100
C15         C  0.77911655  0.72212049  0.73469989    -0.11000
H16         H  0.82548590  0.73121624  0.68270781     0.08700
H17         H  0.82086586  0.66696908  0.74250580     0.06200
H18         H  0.76082551  0.73087153  0.74371141     0.06100
C19         C  0.72038632  0.80692191  0.71195266     0.03100
C20         C  0.70759646  0.79401390  0.73452502    -0.13100
C21         C  0.68397013  0.80529299  0.74634768     0.00600
C22         C  0.67296390  0.82939737  0.73582229    -0.11600
C23         C  0.68500510  0.84262156  0.71353730     0.03100
C24         C  0.70870618  0.83137890  0.70141841    -0.11000
H25         H  0.71582676  0.77522288  0.74296000     0.08700
H26         H  0.65458008  0.83788977  0.74501493     0.06200
H27         H  0.71793368  0.84168928  0.68406237     0.06100
C28         C  0.74560315  0.79466630  0.69959563     0.80200
N29         N  0.75722185  0.77193086  0.71087049    -0.78100
C30         C  0.78002017  0.76030529  0.69971891     0.82600
N31         N  0.79121782  0.77178878  0.67685358    -0.78100
C32         C  0.77987540  0.79449095  0.66518236     0.82700
N33         N  0.75707428  0.80573389  0.67671654    -0.79800
C34         C  0.17956880  0.68658726  0.12829911     0.03100
C35         C  0.18920096  0.71137571  0.13971183    -0.13100
C36         C  0.21039910  0.72632953  0.12664364     0.00600
C37         C  0.22134111  0.71609111  0.10172508    -0.11600
C38         C  0.21136774  0.69164666  0.09021409     0.03100
C39         C  0.19071069  0.67715930  0.10361307    -0.11000
H40         H  0.18058986  0.71858701  0.15887486     0.08700
H41         H  0.23752388  0.72702359  0.09116373     0.06200
H42         H  0.18314625  0.65823881  0.09461744     0.06100
C43         C  0.22078651  0.78721301  0.17273851     0.80200
N44         N  0.21002876  0.76384626  0.16157165    -0.78100
C45         C  0.22165032  0.75215070  0.13890761     0.82600
N46         N  0.24419093  0.76411365  0.12756787    -0.78100
C47         C  0.25525802  0.78732224  0.13839285     0.82700
N48         N  0.24340046  0.79865602  0.16096992    -0.79800
C49         C  0.20228119  0.21460013  0.64096874     0.03100
C50         C  0.17890841  0.22624954  0.62842479    -0.13100
C51         C  0.16736085  0.21405939  0.60500007     0.00600
C52         C  0.17890607  0.19035072  0.59409164    -0.11600
C53         C  0.20220212  0.17874359  0.60574491     0.03100
C54         C  0.21390052  0.19067634  0.62925641    -0.11000
H55         H  0.16991712  0.24487830  0.63647995     0.08700
H56         H  0.17023000  0.18137966  0.57562354     0.06200
H57         H  0.23218898  0.18160708  0.63794472     0.06100
C58         C  0.24858671  0.22706466  0.70067753     0.80200
N59         N  0.23792594  0.25055728  0.71120449    -0.78100
C60         C  0.21587947  0.26278571  0.69928866     0.82600
N61         N  0.20444271  0.25112022  0.67654460    -0.78100
C62         C  0.21483005  0.22754696  0.66574509     0.82700
N63         N  0.23687175  0.21575914  0.67798960    -0.79800
C64         C  0.72445140  0.21272344  0.11870250     0.03100
C65         C  0.71242110  0.18897628  0.13009667    -0.13100
C66         C  0.68912685  0.17712902  0.11788085     0.00600
C67         C  0.67782144  0.18892877  0.09434637    -0.11600
C68         C  0.68924707  0.21256124  0.08291932     0.03100
C69         C  0.71258388  0.22433223  0.09493981    -0.11000
H70         H  0.72087140  0.17981817  0.14846792     0.08700
H71         H  0.65956467  0.18002296  0.08523865     0.06200
H72         H  0.72106971  0.24276648  0.08593361     0.06100
C73         C  0.78226651  0.26109486  0.13111866     0.80200
N74         N  0.75966831  0.24895700  0.12027090    -0.78100
C75         C  0.74904651  0.22570629  0.13142117     0.82600
N76         N  0.76146593  0.21446646  0.15382539    -0.78100
C77         C  0.78419858  0.22640989  0.16496694     0.82700
N78         N  0.79433199  0.24966062  0.15341942    -0.79800
In79       In  0.50153442  0.25929542  0.91392926     1.36900
C80         C  0.47174348  0.26829432  0.95722347     0.77500
O81         O  0.46480556  0.27323505  0.89139027    -0.60900
O82         O  0.47234669  0.22987974  0.89387573    -0.51800
C83         C  0.53019454  0.26762777  0.86972626     0.70200
O84         O  0.52087242  0.28755969  0.88386990    -0.46700
C85         C  0.54630650  0.25229281  0.94320900     0.74900
O86         O  0.48110607  0.28793940  0.94273136    -0.58500
O87         O  0.53176635  0.23210774  0.93498135    -0.48600
O88         O  0.47857650  0.24437071  0.94948572    -0.55000
C89         C  0.45688223  0.24915185  0.88533669     0.85100
O90         O  0.52426792  0.24385630  0.87855560    -0.56900
O91         O  0.53750499  0.27578677  0.93634802    -0.60200
In92       In  0.25522262  0.50850173  0.91711919     1.36900
C93         C  0.24606704  0.55505255  0.94328699     0.77500
O94         O  0.24249288  0.48852062  0.95583264    -0.60900
O95         O  0.28519380  0.48811738  0.94533345    -0.51800
C96         C  0.24092806  0.46342978  0.89086538     0.70200
O97         O  0.22306922  0.48076646  0.89883181    -0.46700
C98         C  0.26754307  0.53288607  0.87071131     0.74900
O99         O  0.22659018  0.53932976  0.93566083    -0.58500
O100        O  0.28613596  0.52514800  0.88736601    -0.48600
O101        O  0.26988229  0.54675493  0.93706796    -0.55000
C102        C  0.26649891  0.48074335  0.96202735     0.85100
O103        O  0.26552556  0.46941145  0.89677359    -0.56900
O104        O  0.24315025  0.52811753  0.87827567    -0.57000
C105        C  0.33349632  0.30298650  0.10313168     0.03100
C106        C  0.32294149  0.29151228  0.12725991    -0.13100
C107        C  0.29977278  0.30318023  0.14017504     0.00600
C108        C  0.28753288  0.32666801  0.12830154    -0.11600
C109        C  0.29843187  0.33815408  0.10417418     0.03100
C110        C  0.32133905  0.32621409  0.09196070    -0.11000
H111        H  0.33256733  0.27333393  0.13555754     0.08700
H112        H  0.26952489  0.33583310  0.13746742     0.06200
H113        H  0.32951771  0.33481940  0.07314204     0.06100
In114      In  0.50679301  0.00360288  0.16773584     1.36900
C115        C  0.53776801  0.96029704  0.17505584     0.77500
O116        O  0.47275095  0.97974324  0.18542890    -0.60900
O117        O  0.47595524  0.98225946  0.14150871    -0.51800
C118        C  0.47657007  0.04741708  0.17580865     0.70200
O119        O  0.48640329  0.03365171  0.19576041    -0.46700
C120        C  0.55052467  0.03288263  0.15706146     0.74900
O121        O  0.52958153  0.97493319  0.19517651    -0.58500
O122        O  0.53563395  0.02281038  0.13800327    -0.48600
O123        O  0.52947769  0.96801586  0.15158481    -0.55000
C124        C  0.46291816  0.97301357  0.16223196     0.85100
O125        O  0.48287842  0.03873026  0.15204201    -0.56900
O126        O  0.54252220  0.02772880  0.18133970    -0.60200
In127      In  0.25074060  0.00956912  0.41864518     1.36900
C128        C  0.24205105  0.97835109  0.37548318     0.77500
O129        O  0.23769657  0.04504737  0.39379092    -0.60900
O130        O  0.28081107  0.03789618  0.39859708    -0.51800
C131        C  0.23737754  0.03921643  0.46124512     0.70200
O132        O  0.21917628  0.03007843  0.44481809    -0.46700
C133        C  0.26137532  0.96756016  0.45064744     0.74900
O134        O  0.22233298  0.98745818  0.38999873    -0.58500
O135        O  0.28044428  0.98287207  0.44139095    -0.48600
O136        O  0.26578468  0.98537998  0.38351767    -0.55000
C137        C  0.26193056  0.05244116  0.38792218     0.85100
O138        O  0.26197576  0.03338389  0.45530537    -0.56900
O139        O  0.23739419  0.97396700  0.44290236    -0.60200
C140        C  0.30130298  0.22892898  0.20952411     0.03100
C141        C  0.32435703  0.21646189  0.19686945    -0.13100
C142        C  0.33572374  0.19225069  0.20782409     0.00600
C143        C  0.32417857  0.18071737  0.23131793    -0.11600
C144        C  0.30129761  0.19232417  0.24379114     0.03100
C145        C  0.28982279  0.21634280  0.23300282    -0.11000
H146        H  0.33328129  0.22526603  0.17855092     0.08700
H147        H  0.33276390  0.16200028  0.23968647     0.06200
H148        H  0.27199471  0.22505411  0.24293971     0.06100
In149      In  0.00347599  0.50251223  0.17220976     1.36900
C150        C  0.97493425  0.45836243  0.16075047     0.77500
O151        O  0.04001923  0.47943491  0.15977000    -0.60900
O152        O  0.03104463  0.48247463  0.20289906    -0.51800
C153        C  0.03449006  0.54571269  0.16371361     0.70200
O154        O  0.02529001  0.53115166  0.14398960    -0.46700
C155        C  0.95891151  0.53138392  0.18044294     0.74900
O156        O  0.98503220  0.47347628  0.14196666    -0.58500
O157        O  0.97339143  0.52225383  0.20017199    -0.48600
O158        O  0.98000897  0.46610078  0.18511232    -0.55000
C159        C  0.04700235  0.47362338  0.18415432     0.85100
O160        O  0.02683056  0.53823710  0.18744075    -0.56900
O161        O  0.96767175  0.52563369  0.15660231    -0.60200
In162      In  0.00128871  0.25642343  0.41301650     1.36900
C163        C  0.97096992  0.25159652  0.36929566     0.77500
O164        O  0.96684431  0.23839378  0.43645987    -0.60900
O165        O  0.97120369  0.28236708  0.43497307    -0.51800
C166        C  0.03190441  0.25190841  0.45672661     0.70200
O167        O  0.02291361  0.23099772  0.44371121    -0.46700
C168        C  0.04478328  0.26106832  0.38208197     0.74900
O169        O  0.97966388  0.23066264  0.38236977    -0.58500
O170        O  0.03136147  0.28198859  0.39025672    -0.48600
O171        O  0.97785263  0.27474287  0.37924838    -0.55000
C172        C  0.95778300  0.26172335  0.44387644     0.85100
O173        O  0.02490188  0.27502710  0.44691529    -0.56900
O174        O  0.03561146  0.23794233  0.38997807    -0.60200
C175        C  0.19580290  0.29902485  0.25097586     0.03100
C176        C  0.18515888  0.32401115  0.24241962    -0.13100
C177        C  0.19647261  0.33819568  0.22034592     0.00600
C178        C  0.21925408  0.32702893  0.20647113    -0.11600
C179        C  0.23100431  0.30194843  0.21534930     0.03100
C180        C  0.21888470  0.28809262  0.23778673    -0.11000
H181        H  0.16696900  0.33198942  0.25243578     0.08700
H182        H  0.22767948  0.33782928  0.18900575     0.06200
H183        H  0.22681472  0.26854517  0.24463651     0.06100
C184        C  0.28820060  0.29035944  0.16542298     0.80200
N185        N  0.26614803  0.30164740  0.17835502    -0.78100
C186        C  0.25532336  0.28975451  0.20118324     0.82600
N187        N  0.26689414  0.26631190  0.21095472    -0.78100
C188        C  0.28894376  0.25469654  0.19839725     0.82700
N189        N  0.29943007  0.26691188  0.17563508    -0.79800
C190        C  0.20847250  0.80014372  0.19776929     0.03100
C191        C  0.18363937  0.79027686  0.20928735    -0.13100
C192        C  0.17253642  0.80277821  0.23289466     0.00600
C193        C  0.18635754  0.82461176  0.24514997    -0.11600
C194        C  0.21101246  0.83444867  0.23453122     0.03100
C195        C  0.22190660  0.82252544  0.21067921    -0.11000
H196        H  0.17295853  0.77312710  0.20001808     0.08700
H197        H  0.17791292  0.83391619  0.26353042     0.06200
H198        H  0.24109426  0.83033362  0.20268851     0.06100
C199        C  0.79885270  0.21383953  0.18865766     0.03100
C200        C  0.78976113  0.18901979  0.20062051    -0.13100
C201        C  0.80491386  0.17673137  0.22190424     0.00600
C202        C  0.82881638  0.18939822  0.23130933    -0.11600
C203        C  0.83751939  0.21436275  0.22053948     0.03100
C204        C  0.82261395  0.22665843  0.19934425    -0.11000
H205        H  0.77117662  0.17918949  0.19341884     0.08700
H206        H  0.84002529  0.18046155  0.24831503     0.06200
H207        H  0.82958315  0.24618112  0.19138891     0.06100
C208        C  0.31647317  0.79992521  0.09097716     0.03100
C209        C  0.32810933  0.82292070  0.10343648    -0.13100
C210        C  0.31677672  0.83435460  0.12705585     0.00600
C211        C  0.29279567  0.82307065  0.13827192    -0.11600
C212        C  0.28032119  0.79987310  0.12598334     0.03100
C213        C  0.29255553  0.78831910  0.10224573    -0.11000
H214        H  0.34678213  0.83164009  0.09503774     0.08700
H215        H  0.28435297  0.83200955  0.15677328     0.06200
H216        H  0.28385712  0.77020589  0.09273506     0.06100
C217        C  0.20426032  0.28838265  0.71129208     0.03100
C218        C  0.21488321  0.29928844  0.73609769    -0.13100
C219        C  0.20324391  0.32285403  0.74787818     0.00600
C220        C  0.18173261  0.33602241  0.73447204    -0.11600
C221        C  0.17089651  0.32567315  0.71012311     0.03100
C222        C  0.18207616  0.30187593  0.69843081    -0.11000
H223        H  0.23162554  0.28922760  0.74661610     0.08700
H224        H  0.17291357  0.35438204  0.74342459     0.06200
H225        H  0.17339908  0.29397844  0.67954244     0.06100
C226        C  0.27261148  0.21362968  0.71379335     0.03100
C227        C  0.28353290  0.18946288  0.70222597    -0.13100
C228        C  0.30586170  0.17633490  0.71446138     0.00600
C229        C  0.31754650  0.18725497  0.73822858    -0.11600
C230        C  0.30762815  0.21152730  0.74975046     0.03100
C231        C  0.28506213  0.22474549  0.73760404    -0.11000
H232        H  0.27489504  0.18080807  0.68364916     0.08700
H233        H  0.33523836  0.17729390  0.74727223     0.06200
H234        H  0.27743830  0.24355417  0.74660886     0.06100
C235        C  0.79397232  0.28627552  0.11854275     0.03100
C236        C  0.81696114  0.29925339  0.13051458    -0.13100
C237        C  0.82792230  0.32315673  0.11893408     0.00600
C238        C  0.81605165  0.33411522  0.09531045    -0.11600
C239        C  0.79333126  0.32162145  0.08310681     0.03100
C240        C  0.78222472  0.29773840  0.09467295    -0.11000
H241        H  0.82615106  0.29113253  0.14902067     0.08700
H242        H  0.82435751  0.35278191  0.08652497     0.06200
H243        H  0.76440314  0.28840777  0.08521210     0.06100
C244        C  0.67314914  0.29538733  0.72808772     0.03100
C245        C  0.68530143  0.31768925  0.74110840    -0.13100
C246        C  0.70852268  0.33025795  0.73027847     0.00600
C247        C  0.71974784  0.32046759  0.70560094    -0.11600
C248        C  0.70790196  0.29756684  0.69211041     0.03100
C249        C  0.68439197  0.28510971  0.70369109    -0.11000
H250        H  0.67645265  0.32544015  0.76001815     0.08700
H251        H  0.73781161  0.33038106  0.69732886     0.06200
H252        H  0.67477993  0.26762994  0.69387213     0.06100
In253      In  0.74807746  0.50733188  0.91221395     1.36900
C254        C  0.75387487  0.46329768  0.94197570     0.77500
O255        O  0.77110360  0.52969359  0.94412390    -0.60900
O256        O  0.72690713  0.53042808  0.94484543    -0.51800
C257        C  0.75112524  0.55006526  0.88041181     0.70200
O258        O  0.77228340  0.53618117  0.88699066    -0.46700
C259        C  0.73839443  0.47699250  0.86946023     0.74900
O260        O  0.77439880  0.47581117  0.93160058    -0.58500
O261        O  0.71898394  0.48610972  0.88446014    -0.48600
O262        O  0.73054607  0.47369013  0.93672958    -0.55000
C263        C  0.74940215  0.53827641  0.95575442     0.85100
O264        O  0.72852339  0.54202493  0.89071703    -0.56900
O265        O  0.76251705  0.48393430  0.87671826    -0.60200
C266        C  0.81532660  0.33664277  0.62332341     0.03100
C267        C  0.79096213  0.32500655  0.63326475    -0.13100
C268        C  0.77999619  0.30103866  0.62101653     0.00600
C269        C  0.79401314  0.28910898  0.59860763    -0.11600
C270        C  0.81853077  0.30071579  0.58892197     0.03100
C271        C  0.82874049  0.32454280  0.60113032    -0.11000
H272        H  0.78095962  0.33439847  0.65073381     0.08700
H273        H  0.78630604  0.27058150  0.58903706     0.06200
H274        H  0.84770594  0.33344493  0.59364876     0.06100
In275      In  0.99767814  0.51097777  0.67151233     1.36900
C276        C  0.95377617  0.48111834  0.66273650     0.77500
O277        O  0.02034919  0.47468154  0.65718099    -0.60900
O278        O  0.01906679  0.48291091  0.70060413    -0.51800
C279        C  0.04212409  0.53928873  0.66126047     0.70200
O280        O  0.02711570  0.52986226  0.64195929    -0.46700
C281        C  0.96876444  0.55548279  0.68033826     0.74900
O282        O  0.96804967  0.49065606  0.64301787    -0.58500
O283        O  0.97758702  0.54082439  0.70010158    -0.48600
O284        O  0.96232344  0.48728004  0.68659082    -0.55000
C285        C  0.02780737  0.46774674  0.68114031     0.85100
O286        O  0.03372616  0.53425506  0.68537178    -0.56900
O287        O  0.97507523  0.54693879  0.65655070    -0.60200
C288        C  0.22545490  0.70853552  0.61866240     0.03100
C289        C  0.21141036  0.72160661  0.59689115    -0.13100
C290        C  0.18742675  0.70986370  0.58586145     0.00600
C291        C  0.17777542  0.68503041  0.59625796    -0.11600
C292        C  0.19087956  0.67216856  0.61808816     0.03100
C293        C  0.21467586  0.68378656  0.62930919    -0.11000
H294        H  0.21859118  0.74106103  0.58896884     0.08700
H295        H  0.15899257  0.67625062  0.58811322     0.06200
H296        H  0.22434944  0.67373729  0.64657091     0.06100
C297        C  0.77460212  0.69937657  0.21630507     0.03100
C298        C  0.78542453  0.67475111  0.20540462    -0.13100
C299        C  0.80714671  0.66117238  0.21861244     0.00600
C300        C  0.81779470  0.67198287  0.24293455    -0.11600
C301        C  0.80804623  0.69656702  0.25379239     0.03100
C302        C  0.78636006  0.71025630  0.24061634    -0.11000
H303        H  0.77719876  0.66620392  0.18660874     0.08700
H304        H  0.83510041  0.66199742  0.25268875     0.06200
H305        H  0.77932250  0.72963215  0.24885946     0.06100
In306      In  0.99739050  0.76126475  0.41830261     1.36900
C307        C  0.03998093  0.75070700  0.44946774     0.77500
O308        O  0.02169417  0.74836399  0.38238938    -0.60900
O309        O  0.01707250  0.79149762  0.38937139    -0.51800
C310        C  0.95455979  0.74523756  0.38946175     0.70200
O311        O  0.97159691  0.72817857  0.39937681    -0.46700
C312        C  0.96806324  0.77424154  0.46177761     0.74900
O313        O  0.02449478  0.73169374  0.44040957    -0.58500
O314        O  0.97670034  0.79253216  0.44522415    -0.48600
O315        O  0.03385177  0.77469473  0.44167244    -0.55000
C316        C  0.02706803  0.77249202  0.37446463     0.85100
O317        O  0.95966172  0.77018691  0.39476502    -0.56900
O318        O  0.97441915  0.74986417  0.45549091    -0.60200
C319        C  0.67532834  0.81392942  0.20853478     0.03100
C320        C  0.68537936  0.78887178  0.19861416    -0.13100
C321        C  0.70769946  0.77580072  0.21178117     0.00600
C322        C  0.71953906  0.78826466  0.23514583    -0.11600
C323        C  0.70941966  0.81332612  0.24491750     0.03100
C324        C  0.68725334  0.82568613  0.23178812    -0.11000
H325        H  0.67639460  0.78017074  0.18023125     0.08700
H326        H  0.73713992  0.77915542  0.24512657     0.06200
H327        H  0.67982464  0.84530367  0.23919762     0.06100
In328      In  0.75265107  0.00699032  0.40971630     1.36900
C329        C  0.76619367  0.03689445  0.36693322     0.77500
O330        O  0.76998619  0.97162538  0.38763244    -0.60900
O331        O  0.72638859  0.97750561  0.38604036    -0.51800
C332        C  0.75778119  0.97618212  0.45384950     0.70200
O333        O  0.77852955  0.98562937  0.44102161    -0.46700
C334        C  0.74120696  0.05114468  0.43860254     0.74900
O335        O  0.78402719  0.02866867  0.38419290    -0.58500
O336        O  0.72237726  0.03631916  0.42799500    -0.48600
O337        O  0.74172820  0.02929885  0.37168359    -0.55000
C338        C  0.74701915  0.96317159  0.37869694     0.85100
O339        O  0.73469200  0.98321759  0.44407898    -0.56900
O340        O  0.76550507  0.04304105  0.43404968    -0.60200
C341        C  0.71784844  0.67979217  0.09604655     0.03100
C342        C  0.72670609  0.68865306  0.12191918    -0.13100
C343        C  0.71147487  0.70822523  0.13674316     0.00600
C344        C  0.68682760  0.71850509  0.12518363    -0.11600
C345        C  0.67749799  0.70883133  0.09957469     0.03100
C346        C  0.69318570  0.68962765  0.08532286    -0.11000
H347        H  0.74569341  0.68062685  0.13014845     0.08700
H348        H  0.67469097  0.73350046  0.13616375     0.06200
H349        H  0.68602730  0.68214033  0.06560330     0.06100
C350        C  0.29754577  0.70681575  0.69000083     0.03100
C351        C  0.32043506  0.71913311  0.70288562    -0.13100
C352        C  0.33215076  0.70721264  0.72622009     0.00600
C353        C  0.32121331  0.68309942  0.73687945    -0.11600
C354        C  0.29872049  0.67037434  0.72463368     0.03100
C355        C  0.28679152  0.68215424  0.70110238    -0.11000
H356        H  0.32909052  0.73801444  0.69503870     0.08700
H357        H  0.33028771  0.67417452  0.75512675     0.06200
H358        H  0.26922015  0.67225932  0.69175709     0.06100
In359      In  0.50000554  0.75106407  0.91629896     1.36900
C360        C  0.47154439  0.74303299  0.87116551     0.77500
O361        O  0.46307743  0.73730702  0.93896323    -0.60900
O362        O  0.47142264  0.78041273  0.93672344    -0.51800
C363        C  0.53110202  0.74098018  0.95915519     0.70200
O364        O  0.52166241  0.72166799  0.94414739    -0.46700
C365        C  0.54362254  0.76251787  0.88737623     0.74900
O366        O  0.47962466  0.72298445  0.88590510    -0.58500
O367        O  0.52828764  0.78122445  0.89725884    -0.48600
O368        O  0.47848651  0.76653383  0.87987718    -0.55000
C369        C  0.45578113  0.76143302  0.94551678     0.85100
O370        O  0.52357714  0.76493460  0.95244949    -0.56900
O371        O  0.53643251  0.73807929  0.89279845    -0.60200
C372        C  0.70606461  0.19517673  0.57988896     0.03100
C373        C  0.71818054  0.21842790  0.59210463    -0.13100
C374        C  0.70823962  0.22862079  0.61747346     0.00600
C375        C  0.68651922  0.21454146  0.63061764    -0.11600
C376        C  0.67466670  0.19119351  0.61855672     0.03100
C377        C  0.68432693  0.18211732  0.59313990    -0.11000
H378        H  0.73511376  0.22846286  0.58183677     0.08700
H379        H  0.67933692  0.22121020  0.65053429     0.06200
H380        H  0.67523828  0.16404082  0.58382161     0.06100
C381        C  0.29398925  0.82184689  0.59127457     0.03100
C382        C  0.31556731  0.83410412  0.60549016    -0.13100
C383        C  0.32687918  0.82185116  0.62867467     0.00600
C384        C  0.31672217  0.79640078  0.63760368    -0.11600
C385        C  0.29467971  0.78348393  0.62361352     0.03100
C386        C  0.28338718  0.79659127  0.60029339    -0.11000
H387        H  0.32361212  0.85362544  0.59846101     0.08700
H388        H  0.32580624  0.78697609  0.65552453     0.06200
H389        H  0.26651827  0.78731907  0.58917617     0.06100
In390      In  0.49585699  0.01094875  0.66763808     1.36900
C391        C  0.53942082  0.98223855  0.68002737     0.77500
O392        O  0.47380616  0.97546849  0.68514707    -0.60900
O393        O  0.47550593  0.97935795  0.64126236    -0.51800
C394        C  0.45140487  0.04071244  0.67334593     0.70200
O395        O  0.46597674  0.03351280  0.69384847    -0.46700
C396        C  0.52680453  0.05352450  0.65578074     0.74900
O397        O  0.52423889  0.99269736  0.69860069    -0.58500
O398        O  0.51825329  0.03707476  0.63726731    -0.48600
O399        O  0.53198941  0.98698454  0.65550284    -0.55000
C400        C  0.46724773  0.96560157  0.66193907     0.85100
O401        O  0.46003484  0.03244222  0.65020734    -0.56900
O402        O  0.51866110  0.04816503  0.67993792    -0.60200
C403        C  0.28485696  0.72007652  0.66551017     0.80200
N404        N  0.29508205  0.74407450  0.65558382    -0.78100
C405        C  0.28339957  0.75676873  0.63365296     0.82600
N406        N  0.26099905  0.74508100  0.62158508    -0.78100
C407        C  0.25042522  0.72105214  0.63124709     0.82700
N408        N  0.26253626  0.70878030  0.65319340    -0.79800
C409        C  0.71959741  0.75027945  0.20008063     0.80200
N410        N  0.71034859  0.74060656  0.17561158    -0.78100
C411        C  0.72153062  0.71797969  0.16394316     0.82600
N412        N  0.74230880  0.70479996  0.17719492    -0.78100
C413        C  0.75182152  0.71401453  0.20186956     0.82700
N414        N  0.74037310  0.73689067  0.21307597    -0.79800
C415        C  0.72055121  0.25346223  0.63064095     0.80200
N416        N  0.70920774  0.26407803  0.65385953    -0.78100
C417        C  0.72019820  0.28649133  0.66638795     0.82600
N418        N  0.74291379  0.29832041  0.65540616    -0.78100
C419        C  0.75465055  0.28811003  0.63223371     0.82700
N420        N  0.74332283  0.26563488  0.61995826    -0.79800
C421        C  0.34977878  0.83643993  0.64235655    -0.19900
C422        C  0.34491878  0.86127583  0.65645536     0.36300
C423        C  0.36692368  0.87914771  0.66179715    -0.25900
C424        C  0.39353142  0.87283533  0.65305840     0.02700
C425        C  0.39877769  0.84715225  0.64084639     0.27600
C426        C  0.37677161  0.82908941  0.63569680    -0.25000
N427        N  0.31753798  0.86863618  0.66449876    -0.82400
H428        H  0.36310452  0.89880103  0.67145135     0.13400
C429        C  0.41467790  0.89471751  0.65411126     0.02700
N430        N  0.42619312  0.83997373  0.63286330    -0.81000
H431        H  0.38039053  0.81013562  0.62466705     0.18200
C432        C  0.43150617  0.89742491  0.67722595    -0.25800
C433        C  0.44920725  0.92012212  0.68021916     0.36200
C434        C  0.45038272  0.94026795  0.65927143    -0.19800
C435        C  0.43431981  0.93670587  0.63562467    -0.25100
C436        C  0.41627903  0.91433746  0.63298140     0.27600
H437        H  0.43010715  0.88227010  0.69339144     0.13300
N438        N  0.46597981  0.92257268  0.70436636    -0.82400
H439        H  0.43507941  0.95198587  0.61954120     0.18200
N440        N  0.39876940  0.91194984  0.60936199    -0.81000
H441        H  0.46446318  0.90488064  0.71635097     0.33800
H442        H  0.45787513  0.93841180  0.71630684     0.38300
H443        H  0.40196785  0.92834693  0.59595258     0.33800
H444        H  0.40442475  0.89420250  0.59875920     0.30500
H445        H  0.42657583  0.82028468  0.62436350     0.33800
H446        H  0.43226851  0.85343098  0.61734676     0.30500
H447        H  0.30614492  0.87226051  0.64672177     0.38400
H448        H  0.31766352  0.88707461  0.67546656     0.33800
C449        C  0.54572980  0.07693790  0.65041614    -0.19900
C450        C  0.56186199  0.07865787  0.62638053     0.36300
C451        C  0.58206964  0.09919755  0.62433788    -0.25900
C452        C  0.58641339  0.11821214  0.64557884     0.02700
C453        C  0.56948188  0.11742015  0.66892233     0.27600
C454        C  0.54933644  0.09685206  0.67108176    -0.25000
N455        N  0.55853539  0.05902606  0.60460885    -0.82400
H456        H  0.59492057  0.10013810  0.60623669     0.13400
C457        C  0.60976116  0.13776520  0.64346058     0.02700
N458        N  0.57336346  0.13696003  0.69069381    -0.81000
H459        H  0.53687548  0.09593219  0.68944057     0.18200
C460        C  0.60502368  0.16617168  0.64272301    -0.25800
C461        C  0.62653644  0.18474301  0.63718594     0.36200
C462        C  0.65312934  0.17450309  0.63219611    -0.19800
C463        C  0.65810309  0.14633236  0.63528974    -0.25100
C464        C  0.63675228  0.12788917  0.64079384     0.27600
H465        H  0.58430832  0.17372695  0.64523011     0.13300
N466        N  0.62110088  0.21358290  0.63484239    -0.82400
H467        H  0.67860163  0.13852800  0.63182159     0.18200
N468        N  0.64217848  0.09899884  0.64276149    -0.81000
H469        H  0.60020762  0.21746312  0.63755552     0.33800
H470        H  0.63110920  0.22339265  0.65108033     0.38300
H471        H  0.66304157  0.09503830  0.63993788     0.33800
H472        H  0.63741043  0.09289478  0.66274531     0.30500
H473        H  0.55915509  0.13366450  0.70639606     0.33800
H474        H  0.59275120  0.13355408  0.69916163     0.30500
H475        H  0.53935378  0.06247603  0.59570166     0.38400
H476        H  0.57299410  0.06236864  0.58914671     0.33800
C477        C  0.45443482  0.73958627  0.84605498    -0.19900
C478        C  0.44966410  0.76157239  0.82757958     0.36300
C479        C  0.43172478  0.75782208  0.80530323    -0.25900
C480        C  0.41783859  0.73302976  0.80148858     0.02700
C481        C  0.42292935  0.71091122  0.81931105     0.27600
C482        C  0.44153803  0.71425619  0.84113927    -0.25000
N483        N  0.46271003  0.78774430  0.83148287    -0.82400
H484        H  0.42764839  0.77466982  0.79143189     0.13400
C485        C  0.39672258  0.73090554  0.77975723     0.02700
N486        N  0.40865719  0.68537171  0.81550992    -0.81000
H487        H  0.44509005  0.69732092  0.85502761     0.18200
C488        C  0.40276689  0.71580418  0.75600347    -0.25800
C489        C  0.38226256  0.70976653  0.73662534     0.36200
C490        C  0.35547383  0.71958957  0.74090906    -0.19800
C491        C  0.34986320  0.73619941  0.76365686    -0.25100
C492        C  0.37002558  0.74177343  0.78335393     0.27600
H493        H  0.42321647  0.70760469  0.75329674     0.13300
N494        N  0.38821659  0.69286439  0.71318839    -0.82400
H495        H  0.32909339  0.74324479  0.76717180     0.18200
N496        N  0.36220409  0.75733780  0.80719057    -0.81000
H497        H  0.40898310  0.68762650  0.71286024     0.33800
H498        H  0.37734370  0.67451087  0.71534529     0.38300
H499        H  0.34731806  0.74603314  0.81769646     0.33800
H500        H  0.37845234  0.76007220  0.82080981     0.30500
H501        H  0.41476792  0.67110809  0.83026917     0.33800
H502        H  0.38780433  0.68900623  0.81882858     0.30500
H503        H  0.45323751  0.79718642  0.84823812     0.38400
H504        H  0.45902900  0.80055879  0.81471514     0.33800
C505        C  0.55003215  0.73653308  0.98266997    -0.19900
C506        C  0.56806357  0.71395731  0.98369915     0.36300
C507        C  0.58618082  0.71127601  0.00604975    -0.25900
C508        C  0.58706896  0.73084929  0.02725437     0.02700
C509        C  0.56932643  0.75361246  0.02603603     0.27600
C510        C  0.55110083  0.75624433  0.00376231    -0.25000
N511        N  0.56861902  0.69433738  0.96166951    -0.82400
H512        H  0.60024368  0.69412166  0.00662379     0.13400
C513        C  0.60741990  0.72741325  0.04993107     0.02700
N514        N  0.56979506  0.77388534  0.04746059    -0.81000
H515        H  0.53751722  0.77377125  0.00294547     0.18200
C516        C  0.62748540  0.74765841  0.05454672    -0.25800
C517        C  0.64959904  0.74301640  0.07263896     0.36200
C518        C  0.65141247  0.71782225  0.08667092    -0.19800
C519        C  0.63039126  0.69838950  0.08341477    -0.25100
C520        C  0.60838141  0.70296205  0.06533617     0.27600
H521        H  0.62679444  0.76645746  0.04277290     0.13300
N522        N  0.67091330  0.76316253  0.07573014    -0.82400
H523        H  0.63195299  0.67894227  0.09400919     0.18200
N524        N  0.58743144  0.68249124  0.06184812    -0.81000
H525        H  0.66646193  0.78060689  0.06413291     0.33800
H526        H  0.68892928  0.75489667  0.06761025     0.38300
H527        H  0.59124156  0.66559050  0.07443536     0.33800
H528        H  0.56892948  0.69101049  0.06846913     0.30500
H529        H  0.55563672  0.78942774  0.04341811     0.33800
H530        H  0.56343074  0.76434053  0.06555995     0.30500
H531        H  0.57546002  0.70453357  0.94409904     0.38400
H532        H  0.58293067  0.67892554  0.96567770     0.33800
C533        C  0.73590941  0.07616506  0.45538080    -0.19900
C534        C  0.71127133  0.08006052  0.47008332     0.36300
C535        C  0.70855889  0.10302258  0.48746704    -0.25900
C536        C  0.72963582  0.12256657  0.49018822     0.02700
C537        C  0.75394818  0.11905511  0.47494553     0.27600
C538        C  0.75689459  0.09585732  0.45795194    -0.25000
N539        N  0.68956576  0.06017242  0.46836304    -0.82400
H540        H  0.69003097  0.10540885  0.49946578     0.13400
C541        C  0.72626160  0.14561782  0.51021462     0.02700
N542        N  0.77557782  0.13901621  0.47682552    -0.81000
H543        H  0.77579634  0.09313046  0.44662305     0.18200
C544        C  0.74557721  0.14924921  0.53137694    -0.25800
C545        C  0.74066713  0.16752837  0.55328508     0.36200
C546        C  0.71602291  0.18258142  0.55396021    -0.19800
C547        C  0.69769306  0.18041719  0.53182734    -0.25100
C548        C  0.70265789  0.16232585  0.50987717     0.27600
H549        H  0.76374449  0.13652590  0.53173239     0.13300
N550        N  0.75984758  0.16967226  0.57558432    -0.82400
H551        H  0.67869772  0.19188443  0.53244010     0.18200
N552        N  0.68339732  0.16019680  0.48764682    -0.81000
H553        H  0.77703685  0.15746023  0.57185350     0.33800
H554        H  0.75040710  0.16176302  0.59312433     0.38300
H555        H  0.66701001  0.17366153  0.49059310     0.33800
H556        H  0.69343048  0.16652435  0.46979674     0.30500
H557        H  0.79214634  0.13336177  0.46447075     0.33800
H558        H  0.76806827  0.15745216  0.46894419     0.30500
H559        H  0.68126560  0.06137039  0.44863142     0.38400
H560        H  0.67367889  0.06519276  0.48183870     0.33800
C561        C  0.72302848  0.82894291  0.26702285    -0.19900
C562        C  0.71698326  0.82388668  0.29479214     0.36300
C563        C  0.72364167  0.84389581  0.31459378    -0.25900
C564        C  0.73618670  0.86867010  0.30691351     0.02700
C565        C  0.74389148  0.87277786  0.27934922     0.27600
C566        C  0.73731075  0.85278542  0.25969912    -0.25000
N567        N  0.70259136  0.79934162  0.30242437    -0.82400
H568        H  0.71796287  0.84076910  0.33584253     0.13400
C569        C  0.73877448  0.89136016  0.32707706     0.02700
N570        N  0.75704009  0.89787995  0.27120584    -0.81000
H571        H  0.74162597  0.85663215  0.23823532     0.18200
C572        C  0.76483076  0.90078198  0.33454042    -0.25800
C573        C  0.76811741  0.92419667  0.35110747     0.36200
C574        C  0.74464679  0.93830796  0.36094198    -0.19800
C575        C  0.71851698  0.92845598  0.35367336    -0.25100
C576        C  0.71536256  0.90527023  0.33669761     0.27600
H577        H  0.78271590  0.89019867  0.32672280     0.13300
N578        N  0.79525908  0.93381904  0.35747823    -0.82400
H579        H  0.70044582  0.93906093  0.36097458     0.18200
N580        N  0.68849336  0.89607350  0.32871142    -0.81000
H581        H  0.81006445  0.92044063  0.34968761     0.33800
H582        H  0.79804574  0.95242938  0.34723196     0.38300
H583        H  0.67340355  0.90844949  0.33754301     0.33800
H584        H  0.68678628  0.89851829  0.30747477     0.30500
H585        H  0.76138243  0.89762576  0.25020604     0.33800
H586        H  0.74312896  0.91384839  0.27438563     0.30500
H587        H  0.71533965  0.78273551  0.29791126     0.38400
H588        H  0.69926813  0.79894502  0.32360650     0.33800
C589        C  0.82418535  0.70903986  0.27633644    -0.19900
C590        C  0.81873936  0.70304284  0.30412530     0.36300
C591        C  0.83859744  0.70945775  0.32422501    -0.25900
C592        C  0.86379771  0.72123718  0.31681664     0.02700
C593        C  0.86870166  0.72819644  0.28922626     0.27600
C594        C  0.84884424  0.72203507  0.26928645    -0.25000
N595        N  0.79344490  0.68995550  0.31168504    -0.82400
H596        H  0.83484224  0.70447829  0.34554679     0.13400
C597        C  0.88535787  0.72594702  0.33778198     0.02700
N598        N  0.89427978  0.74063651  0.28148455    -0.81000
H599        H  0.85316845  0.72610099  0.24786867     0.18200
C600        C  0.90671742  0.70691610  0.34057380    -0.25800
C601        C  0.92926595  0.71223490  0.35790228     0.36200
C602        C  0.93042045  0.73722707  0.37260872    -0.19800
C603        C  0.90849864  0.75579177  0.37032296    -0.25100
C604        C  0.88596699  0.75035019  0.35315445     0.27600
H605        H  0.90611955  0.68820683  0.32856989     0.13300
N606        N  0.95123097  0.69273881  0.35991933    -0.82400
H607        H  0.90907205  0.77484129  0.38176938     0.18200
N608        N  0.86380306  0.76960823  0.35102986    -0.81000
H609        H  0.94686621  0.67524382  0.34828037     0.33800
H610        H  0.96864846  0.70167666  0.35118508     0.38300
H611        H  0.86717881  0.78640437  0.36396134     0.33800
H612        H  0.86364833  0.77721577  0.33100354     0.30500
H613        H  0.89488350  0.74400931  0.26032153     0.33800
H614        H  0.89522843  0.75993586  0.29079588     0.30500
H615        H  0.79333855  0.67034677  0.30299925     0.38400
H616        H  0.79250559  0.68727193  0.33293798     0.33800
C617        C  0.17000999  0.72388510  0.56535370    -0.19900
C618        C  0.17637672  0.72421710  0.53700702     0.36300
C619        C  0.15578523  0.73099008  0.51804430    -0.25900
C620        C  0.12905474  0.73713815  0.52668984     0.02700
C621        C  0.12319065  0.73849672  0.55493040     0.27600
C622        C  0.14373131  0.73192363  0.57394689    -0.25000
N623        N  0.20273662  0.71622179  0.52657879    -0.82400
H624        H  0.16032539  0.73010217  0.49630209     0.13400
C625        C  0.10689305  0.74031928  0.50609212     0.02700
N626        N  0.09612103  0.74564952  0.56409007    -0.81000
H627        H  0.13881582  0.73153488  0.59562900     0.18200
C628        C  0.08535208  0.72120280  0.50560680    -0.25800
C629        C  0.06345018  0.72380425  0.48702188     0.36200
C630        C  0.06330770  0.74587264  0.46831806    -0.19800
C631        C  0.08507564  0.76481476  0.46868272    -0.25100
C632        C  0.10686747  0.76225460  0.48738500     0.27600
H633        H  0.08550913  0.70436869  0.52008283     0.13300
N634        N  0.04107303  0.70460077  0.48765844    -0.82400
H635        H  0.08496915  0.78184445  0.45444385     0.18200
N636        N  0.12874853  0.78202129  0.48776113    -0.81000
H637        H  0.04455591  0.68945918  0.50240153     0.33800
H638        H  0.02359156  0.71526141  0.49395989     0.38300
H639        H  0.12573176  0.79685273  0.47260467     0.33800
H640        H  0.12798529  0.79224653  0.50661091     0.30500
H641        H  0.09507512  0.74536863  0.58550738     0.33800
H642        H  0.09241618  0.76586395  0.55805613     0.30500
H643        H  0.21628045  0.71117853  0.54232235     0.38400
H644        H  0.21114633  0.73322109  0.51660005     0.33800
C645        C  0.06748933  0.55542769  0.65622981    -0.19900
C646        C  0.08657023  0.56083889  0.67751541     0.36300
C647        C  0.10919534  0.57789655  0.67239081    -0.25900
C648        C  0.11340394  0.58949177  0.64651426     0.02700
C649        C  0.09490138  0.58361637  0.62503311     0.27600
C650        C  0.07224391  0.56645534  0.63005439    -0.25000
N651        N  0.08302711  0.54904704  0.70427900    -0.82400
H652        H  0.12360992  0.58237397  0.68872614     0.13400
C653        C  0.13637738  0.60904366  0.64264468     0.02700
N654        N  0.09881392  0.59569851  0.59843949    -0.81000
H655        H  0.05778920  0.56238957  0.61366108     0.18200
C656        C  0.15729218  0.60292645  0.62388950    -0.25800
C657        C  0.17761446  0.62227184  0.61757022     0.36200
C658        C  0.17698418  0.64829877  0.63039788    -0.19800
C659        C  0.15721260  0.65364220  0.65055714    -0.25100
C660        C  0.13674885  0.63433846  0.65670187     0.27600
H661        H  0.15731828  0.58328401  0.61346819     0.13300
N662        N  0.19806148  0.61511742  0.59760184    -0.82400
H663        H  0.15647303  0.67378606  0.65994799     0.18200
N664        N  0.11552326  0.64085006  0.67608767    -0.81000
H665        H  0.18823126  0.61293228  0.57866260     0.33800
H666        H  0.21268973  0.63061137  0.59545040     0.38300
H667        H  0.11878162  0.66026392  0.68461863     0.33800
H668        H  0.09700651  0.64185953  0.66532889     0.30500
H669        H  0.08344465  0.58929204  0.58490119     0.33800
H670        H  0.09667794  0.61691430  0.60059640     0.30500
H671        H  0.08562179  0.52788607  0.70221988     0.38400
H672        H  0.09836290  0.55577579  0.71768418     0.33800
C673        C  0.82865468  0.36040247  0.63663407    -0.19900
C674        C  0.85177507  0.35623348  0.65330941     0.36300
C675        C  0.86892899  0.37835481  0.65986390    -0.25900
C676        C  0.86337512  0.40479605  0.65000793     0.02700
C677        C  0.83907809  0.40940141  0.63491618     0.27600
C678        C  0.82199417  0.38703692  0.62817721    -0.25000
N679        N  0.85859544  0.32919743  0.66242891    -0.82400
H680        H  0.88747630  0.37454880  0.67147964     0.13400
C681        C  0.88445205  0.42661441  0.65366818     0.02700
N682        N  0.83234628  0.43659034  0.62587167    -0.81000
H683        H  0.80426975  0.39012991  0.61514995     0.18200
C684        C  0.89565683  0.43944714  0.63044502    -0.25800
C685        C  0.91763266  0.45808401  0.63273840     0.36200
C686        C  0.92914727  0.46346527  0.65883838    -0.19800
C687        C  0.91729254  0.45117079  0.68208846    -0.25100
C688        C  0.89499704  0.43305525  0.67980583     0.27600
H689        H  0.88759059  0.43442030  0.61033949     0.13300
N690        N  0.92833399  0.47124288  0.60865033    -0.82400
H691        H  0.92565200  0.45541343  0.70224464     0.18200
N692        N  0.88312551  0.42097335  0.70392033    -0.81000
H693        H  0.91795051  0.46451894  0.59111028     0.33800
H694        H  0.92424022  0.49220048  0.61045949     0.38300
H695        H  0.89332481  0.42769017  0.72156797     0.33800
H696        H  0.86296134  0.42803576  0.70542867     0.30500
H697        H  0.81390543  0.43647233  0.61493453     0.33800
H698        H  0.82909286  0.44858636  0.64335785     0.30500
H699        H  0.87811388  0.32438969  0.65501944     0.38400
H700        H  0.85950389  0.32947505  0.68385179     0.33800
C701        C  0.73332891  0.65940885  0.07991222    -0.19900
C702        C  0.74092114  0.66526731  0.05268493     0.36300
C703        C  0.74859805  0.64391788  0.03515123    -0.25900
C704        C  0.74869908  0.61678014  0.04441553     0.02700
C705        C  0.74366723  0.61107464  0.07229617     0.27600
C706        C  0.73616599  0.63263207  0.08997136    -0.25000
N707        N  0.73953099  0.69276058  0.04249832    -0.82400
H708        H  0.75267199  0.64830067  0.01374397     0.13400
C709        C  0.74897679  0.59474762  0.02368373     0.02700
N710        N  0.74493393  0.58335513  0.08214796    -0.81000
H711        H  0.73045184  0.62822116  0.11098244     0.18200
C712        C  0.77359883  0.58215527  0.01623970    -0.25800
C713        C  0.77448069  0.56328731  0.99435387     0.36200
C714        C  0.74999326  0.55682224  0.97995012    -0.19800
C715        C  0.72527663  0.56893060  0.98832338    -0.25100
C716        C  0.72455229  0.58787741  0.00992556     0.27600
H717        H  0.79225153  0.58769498  0.02699761     0.13300
N718        N  0.80011807  0.55092942  0.98679567    -0.82400
H719        H  0.70643716  0.56411882  0.97756356     0.18200
N720        N  0.69921863  0.60088329  0.01750332    -0.81000
H721        H  0.81549339  0.55638466  0.00073393     0.33800
H722        H  0.80598349  0.55930351  0.96796417     0.38300
H723        H  0.68317318  0.59401005  0.00502658     0.33800
H724        H  0.69446943  0.59478105  0.03749027     0.30500
H725        H  0.74084386  0.58272158  0.10318734     0.33800
H726        H  0.72933929  0.57219913  0.07251709     0.30500
H727        H  0.75896759  0.69818325  0.03528823     0.38400
H728        H  0.72598172  0.69302412  0.02587160     0.33800
C729        C  0.72028045  0.35335057  0.74603515    -0.19900
C730        C  0.71759065  0.38054693  0.73686311     0.36300
C731        C  0.72180990  0.40231573  0.75533608    -0.25900
C732        C  0.72831316  0.39711532  0.78286762     0.02700
C733        C  0.73235469  0.36999065  0.79176255     0.27600
C734        C  0.72840912  0.34835721  0.77320390    -0.25000
N735        N  0.70901647  0.38602260  0.70932753    -0.82400
H736        H  0.71888687  0.42323062  0.74849667     0.13400
C737        C  0.72986901  0.41993009  0.80274038     0.02700
N738        N  0.73927001  0.36455550  0.81990901    -0.81000
H739        H  0.73007922  0.32738724  0.78032183     0.18200
C740        C  0.70725399  0.42535324  0.81961067    -0.25800
C741        C  0.70887994  0.44486517  0.84084203     0.36200
C742        C  0.73389496  0.45888415  0.84538751    -0.19800
C743        C  0.75610795  0.45404058  0.82763324    -0.25100
C744        C  0.75438026  0.43458842  0.80647288     0.27600
H745        H  0.68848411  0.41383146  0.81654080     0.13300
N746        N  0.68562375  0.44958385  0.85830454    -0.82400
H747        H  0.77524561  0.46490560  0.83073819     0.18200
N748        N  0.77758805  0.42917051  0.78914800    -0.81000
H749        H  0.66945557  0.43649511  0.85303529     0.33800
H750        H  0.67870492  0.46948679  0.85449757     0.38300
H751        H  0.79403541  0.44189092  0.79442985     0.33800
H752        H  0.78396910  0.40907332  0.79289629     0.30500
H753        H  0.74094799  0.34346102  0.82326415     0.33800
H754        H  0.75866758  0.37291788  0.82359267     0.30500
H755        H  0.72395614  0.39830108  0.70008674     0.38400
H756        H  0.69080216  0.39725128  0.71014697     0.33800
C757        C  0.78067259  0.33542574  0.05935038    -0.19900
C758        C  0.78963980  0.33061922  0.03216054     0.36300
C759        C  0.78271704  0.34945070  0.01155592    -0.25900
C760        C  0.76716299  0.37290749  0.01747377     0.02700
C761        C  0.75699288  0.37685238  0.04440684     0.27600
C762        C  0.76368256  0.35788622  0.06484263    -0.25000
N763        N  0.80685713  0.30780421  0.02500942    -0.82400
H764        H  0.79055139  0.34638983  0.99097683     0.13400
C765        C  0.76442430  0.39436564  0.99617161     0.02700
N766        N  0.74107659  0.40041404  0.05221236    -0.81000
H767        H  0.75708482  0.36177346  0.08572402     0.18200
C768        C  0.73920363  0.39825713  0.98303779    -0.25800
C769        C  0.73510514  0.42048283  0.96513009     0.36200
C770        C  0.75710449  0.43870196  0.95963896    -0.19800
C771        C  0.78272022  0.43380714  0.97186231    -0.25100
C772        C  0.78647400  0.41210585  0.99039170     0.27600
H773        H  0.72238014  0.38448576  0.98764491     0.13300
N774        N  0.70873028  0.42443592  0.95259492    -0.82400
H775        H  0.79966242  0.44758352  0.96775775     0.18200
N776        N  0.81242231  0.40831862  0.00385395    -0.81000
H777        H  0.69573878  0.40794542  0.95696360     0.33800
H778        H  0.69978838  0.44155412  0.96187207     0.38300
H779        H  0.82658209  0.42299925  0.99725247     0.33800
H780        H  0.80946261  0.41173791  0.02482395     0.30500
H781        H  0.75256890  0.41162163  0.06645736     0.33800
H782        H  0.73742012  0.41352375  0.03575472     0.30500
H783        H  0.81046847  0.29515187  0.04186413     0.38400
H784        H  0.79616189  0.29585977  0.01073504     0.33800
C785        C  0.31901399  0.15229930  0.70175119    -0.19900
C786        C  0.31701675  0.12631393  0.71406178     0.36300
C787        C  0.33551422  0.10562981  0.70637945    -0.25900
C788        C  0.35618685  0.11074782  0.68697515     0.02700
C789        C  0.35653778  0.13612821  0.67299137     0.27600
C790        C  0.33775439  0.15661602  0.68046173    -0.25000
N791        N  0.29713065  0.12160763  0.73527806    -0.82400
H792        H  0.33480876  0.08594123  0.71660774     0.13400
C793        C  0.37908648  0.09085444  0.68378744     0.02700
N794        N  0.37693659  0.14159738  0.65243305    -0.81000
H795        H  0.33910865  0.17672220  0.67112902     0.18200
C796        C  0.38601039  0.08102774  0.65766785    -0.25800
C797        C  0.40956454  0.06493175  0.65351397     0.36200
C798        C  0.42614998  0.05763137  0.67628362    -0.19800
C799        C  0.41850954  0.06669915  0.70254698    -0.25100
C800        C  0.39541535  0.08341949  0.70651503     0.27600
H801        H  0.37337251  0.08665743  0.64028732     0.13300
N802        N  0.41668586  0.05635014  0.62620841    -0.82400
H803        H  0.43096364  0.06123086  0.72009776     0.18200
N804        N  0.38887601  0.09343174  0.73349418    -0.81000
H805        H  0.40156004  0.06220636  0.61219336     0.33800
H806        H  0.43442481  0.06700424  0.62061281     0.38300
H807        H  0.40274349  0.08591398  0.74798573     0.33800
H808        H  0.39123216  0.11474115  0.73330734     0.30500
H809        H  0.37417370  0.16110706  0.64402814     0.33800
H810        H  0.39605840  0.14177978  0.66211264     0.30500
H811        H  0.27770578  0.12366902  0.72645673     0.38400
H812        H  0.29845874  0.10147392  0.74246559     0.33800
C813        C  0.04601542  0.44385858  0.68541939    -0.19900
C814        C  0.06549135  0.44319429  0.70685021     0.36300
C815        C  0.08408759  0.42124866  0.70828925    -0.25900
C816        C  0.08360891  0.40008519  0.68878234     0.02700
C817        C  0.06371952  0.40023089  0.66790709     0.27600
C818        C  0.04516026  0.42218769  0.66635799    -0.25000
N819        N  0.06704390  0.46521010  0.72641785    -0.82400
H820        H  0.09953920  0.42094762  0.72426895     0.13400
C821        C  0.10526629  0.37891032  0.68962652     0.02700
N822        N  0.06279352  0.37834111  0.64815125    -0.81000
H823        H  0.03018304  0.42259255  0.64994241     0.18200
C824        C  0.09922581  0.35265472  0.69958208    -0.25800
C825        C  0.12009931  0.33338909  0.70401767     0.36200
C826        C  0.14759344  0.34061314  0.69797172    -0.19800
C827        C  0.15322328  0.36626664  0.68627383    -0.25100
C828        C  0.13232249  0.38552947  0.68209841     0.27600
H829        H  0.07834380  0.34758452  0.70522598     0.13300
N830        N  0.11281700  0.30759285  0.71628057    -0.82400
H831        H  0.17430751  0.37192287  0.68210514     0.18200
N832        N  0.13855907  0.41225950  0.67139219    -0.81000
H833        H  0.09976384  0.29740373  0.70262737     0.33800
H834        H  0.12985053  0.29495668  0.71880956     0.38300
H835        H  0.15951332  0.41404582  0.66727573     0.33800
H836        H  0.12842668  0.41417677  0.65259093     0.30500
H837        H  0.04681786  0.38142640  0.63420143     0.33800
H838        H  0.08099389  0.37900473  0.63685615     0.30500
H839        H  0.07309839  0.48279741  0.71581611     0.38400
H840        H  0.08231690  0.46138555  0.74095772     0.33800
C841        C  0.43116230  0.76649711  0.96295217    -0.19900
C842        C  0.42478469  0.79273786  0.97362843     0.36300
C843        C  0.40344343  0.79543034  0.99291068    -0.25900
C844        C  0.38789556  0.77270572  0.00118043     0.02700
C845        C  0.39291820  0.74693174  0.98924266     0.27600
C846        C  0.41451527  0.74406448  0.97033610    -0.25000
N847        N  0.44032083  0.81642873  0.96551065    -0.82400
H848        H  0.39921969  0.81526651  0.00199813     0.13400
C849        C  0.36796712  0.77592725  0.02393782     0.02700
N850        N  0.37613789  0.72377914  0.99644581    -0.81000
H851        H  0.41873605  0.72398955  0.96182265     0.18200
C852        C  0.34105238  0.78440829  0.01847506    -0.25800
C853        C  0.32273341  0.79060387  0.03989670     0.36200
C854        C  0.33151400  0.78768941  0.06748516    -0.19800
C855        C  0.35809830  0.77793085  0.07271057    -0.25100
C856        C  0.37645994  0.77225527  0.05128611     0.27600
H857        H  0.33457426  0.78725962  0.99740674     0.13300
N858        N  0.29602048  0.80077335  0.03278147    -0.82400
H859        H  0.36504139  0.77620847  0.09376539     0.18200
N860        N  0.40418852  0.76422101  0.05720065    -0.81000
H861        H  0.29869673  0.81951447  0.02275504     0.33800
H862        H  0.28413982  0.80472560  0.05010260     0.38300
H863        H  0.40742823  0.76331137  0.07836030     0.33800
H864        H  0.40696364  0.74431285  0.04973680     0.30500
H865        H  0.38220363  0.70638227  0.98548425     0.33800
H866        H  0.37942433  0.71941771  0.01716029     0.30500
H867        H  0.43618909  0.81994674  0.94476567     0.38400
H868        H  0.43361833  0.83385577  0.97604710     0.33800
C869        C  0.77283511  0.05449972  0.34297562    -0.19900
C870        C  0.79253097  0.07571469  0.34454847     0.36300
C871        C  0.79541617  0.09402570  0.32241142    -0.25900
C872        C  0.77980764  0.09095817  0.29841070     0.02700
C873        C  0.76158780  0.06866092  0.29601493     0.27600
C874        C  0.75778383  0.05106656  0.31857945    -0.25000
N875        N  0.80877234  0.07927227  0.36890636    -0.82400
H876        H  0.80990822  0.11083255  0.32383005     0.13400
C877        C  0.78350669  0.11097768  0.27581439     0.02700
N878        N  0.74780220  0.06340670  0.27044928    -0.81000
H879        H  0.74313543  0.03441040  0.31706053     0.18200
C880        C  0.80653131  0.10863006  0.25882167    -0.25800
C881        C  0.81276909  0.12897567  0.23940413     0.36200
C882        C  0.79541547  0.15196562  0.23672108    -0.19800
C883        C  0.77169716  0.15368923  0.25286372    -0.25100
C884        C  0.76573670  0.13359092  0.27270802     0.27600
H885        H  0.82022196  0.09136973  0.26148319     0.13300
N886        N  0.83732807  0.12711428  0.22322995    -0.82400
H887        H  0.75887994  0.17174263  0.25132992     0.18200
N888        N  0.74290505  0.13709854  0.29101002    -0.81000
H889        H  0.84809911  0.10921701  0.22792703     0.33800
H890        H  0.83143493  0.12554431  0.20266665     0.38300
H891        H  0.73262888  0.15539714  0.28675271     0.33800
H892        H  0.72890036  0.12133696  0.28727315     0.30500
H893        H  0.73582945  0.04567185  0.27184545     0.33800
H894        H  0.73431340  0.07953557  0.26663879     0.30500
H895        H  0.82207926  0.06255443  0.37018997     0.38400
H896        H  0.82121278  0.09666154  0.36721841     0.33800
C897        C  0.04438995  0.77756037  0.34986428    -0.19900
C898        C  0.04649538  0.75771157  0.32873256     0.36300
C899        C  0.06550816  0.76151581  0.30738250    -0.25900
C900        C  0.08253015  0.78464281  0.30664363     0.02700
C901        C  0.07964563  0.80509458  0.32695977     0.27600
C902        C  0.06041218  0.80146335  0.34826154    -0.25000
N903        N  0.02949802  0.73360246  0.32913421    -0.82400
H904        H  0.06761991  0.74602765  0.29156772     0.13400
C905        C  0.10443984  0.78630520  0.28545706     0.02700
N906        N  0.09672988  0.82911578  0.32621903    -0.81000
H907        H  0.05880124  0.81677110  0.36430500     0.18200
C908        C  0.10135642  0.80463502  0.26351819    -0.25800
C909        C  0.12229267  0.80844595  0.24408218     0.36200
C910        C  0.14701344  0.79341497  0.24652135    -0.19800
C911        C  0.14954361  0.77418685  0.26771991    -0.25100
C912        C  0.12879454  0.77057802  0.28734312     0.27600
H913        H  0.08277877  0.81667833  0.26191513     0.13300
N914        N  0.11823557  0.82859232  0.22296334    -0.82400
H915        H  0.16869186  0.76322382  0.27020460     0.18200
N916        N  0.13381547  0.75169344  0.30942554    -0.81000
H917        H  0.10139277  0.82231907  0.21124501     0.33800
H918        H  0.13483914  0.82931455  0.20949503     0.38300
H919        H  0.15067405  0.75901652  0.32050223     0.33800
H920        H  0.11754255  0.75084736  0.32323876     0.30500
H921        H  0.09203529  0.84220991  0.34254680     0.33800
H922        H  0.11699470  0.82280582  0.32911443     0.30500
H923        H  0.00916060  0.73996344  0.32694441     0.38400
H924        H  0.03377569  0.72097948  0.31232400     0.33800
C925        C  0.83445733  0.28829138  0.56630923    -0.19900
C926        C  0.85961340  0.27508115  0.57160616     0.36300
C927        C  0.87685442  0.26814330  0.54957880    -0.25900
C928        C  0.86975231  0.27474452  0.52251305     0.02700
C929        C  0.84402082  0.28704478  0.51714445     0.27600
C930        C  0.82661082  0.29346710  0.53914860    -0.25000
N931        N  0.86778534  0.26928758  0.59935153    -0.82400
H932        H  0.89659251  0.25881667  0.55361278     0.13400
C933        C  0.89102546  0.27171976  0.50101476     0.02700
N934        N  0.83522289  0.29397114  0.48987060    -0.81000
H935        H  0.80742096  0.30386892  0.53510499     0.18200
C936        C  0.89433228  0.24662677  0.48740540    -0.25800
C937        C  0.91541211  0.24294401  0.46797081     0.36200
C938        C  0.93375633  0.26481864  0.46241788    -0.19800
C939        C  0.92987437  0.29004670  0.47578191    -0.25100
C940        C  0.90879335  0.29367906  0.49504358     0.27600
H941        H  0.88050581  0.22987429  0.49209770     0.13300
N942        N  0.91820798  0.21712069  0.45400893    -0.82400
H943        H  0.94378903  0.30688235  0.47172398     0.18200
N944        N  0.90585742  0.31933880  0.50928307    -0.81000
H945        H  0.90341195  0.20318208  0.46082379     0.33800
H946        H  0.91419616  0.22051979  0.43321822     0.38300
H947        H  0.92100704  0.33319500  0.50309958     0.33800
H948        H  0.88708688  0.32783462  0.50347582     0.30500
H949        H  0.83393025  0.31532077  0.48873863     0.33800
H950        H  0.84941548  0.28779962  0.47509334     0.30500
H951        H  0.87141355  0.28795353  0.60925865     0.38400
H952        H  0.88640040  0.25870222  0.59960829     0.33800
C953        C  0.18043714  0.28425998  0.27246564    -0.19900
C954        C  0.15868460  0.26630215  0.26542950     0.36300
C955        C  0.13857197  0.26023780  0.28504444    -0.25900
C956        C  0.13952493  0.27174308  0.31138902     0.02700
C957        C  0.16222753  0.28818319  0.31900718     0.27600
C958        C  0.18240504  0.29416194  0.29943915    -0.25000
N959        N  0.15517415  0.25552357  0.23816052    -0.82400
H960        H  0.12119738  0.24764429  0.27917806     0.13400
C961        C  0.11516847  0.26887434  0.32928801     0.02700
N962        N  0.16492193  0.30004965  0.34590693    -0.81000
H963        H  0.19874077  0.30829301  0.30478529     0.18200
C964        C  0.11311224  0.24648118  0.34707859    -0.25800
C965        C  0.09044053  0.24357292  0.36469813     0.36200
C966        C  0.06933340  0.26344718  0.36426998    -0.19800
C967        C  0.07148039  0.28579435  0.34627849    -0.25100
C968        C  0.09414672  0.28864743  0.32869851     0.27600
H969        H  0.12941789  0.23143376  0.34740452     0.13300
N970        N  0.08905304  0.22079530  0.38331549    -0.82400
H971        H  0.05524396  0.30090743  0.34568958     0.18200
N972        N  0.09575266  0.31128671  0.30991387    -0.81000
H973        H  0.10605650  0.20801053  0.38085638     0.33800
H974        H  0.09015860  0.22866608  0.40325177     0.38300
H975        H  0.07836017  0.32366483  0.31158419     0.33800
H976        H  0.11245548  0.32342826  0.31572507     0.30500
H977        H  0.16329425  0.32131445  0.34385324     0.33800
H978        H  0.14918962  0.29382565  0.35898858     0.30500
H979        H  0.17113599  0.26134566  0.22519167     0.38400
H980        H  0.15608024  0.23415930  0.23949990     0.33800
C981        C  0.86048619  0.22822594  0.23446953    -0.19900
C982        C  0.88725081  0.21784326  0.23208309     0.36300
C983        C  0.90688249  0.22434855  0.25210235    -0.25900
C984        C  0.89991244  0.24071145  0.27473303     0.02700
C985        C  0.87359221  0.25254630  0.27622537     0.27600
C986        C  0.85421373  0.24648647  0.25576068    -0.25000
N987        N  0.89400929  0.19947793  0.21017250    -0.82400
H988        H  0.92716001  0.21540889  0.25079614     0.13400
C989        C  0.91927134  0.24316581  0.29801518     0.02700
N990        N  0.86612353  0.26917607  0.29941218    -0.81000
H991        H  0.83340729  0.25395883  0.25780618     0.18200
C992        C  0.93015691  0.26884554  0.30480232    -0.25800
C993        C  0.94750445  0.27213650  0.32760892     0.36200
C994        C  0.95376739  0.24915716  0.34423936    -0.19800
C995        C  0.94298630  0.22338082  0.33710649    -0.25100
C996        C  0.92568520  0.22018674  0.31426770     0.27600
H997        H  0.92505343  0.28638430  0.29219127     0.13300
N998        N  0.95869805  0.29872092  0.33379563    -0.82400
H999        H  0.94759757  0.20570950  0.34970391     0.18200
N1000       N  0.91413143  0.19381239  0.30779972    -0.81000
H1001       H  0.95130781  0.31342204  0.32008065     0.33800
H1002       H  0.97986870  0.29768347  0.33067187     0.38300
H1003       H  0.92091502  0.17903225  0.32167129     0.33800
H1004       H  0.89285669  0.19521747  0.31028484     0.30500
H1005       H  0.84601592  0.27623656  0.29739903     0.33800
H1006       H  0.86646163  0.25664186  0.31680181     0.30500
H1007       H  0.91044249  0.20791824  0.19931176     0.38400
H1008       H  0.90055538  0.18098738  0.21876576     0.33800
C1009       C  0.82116284  0.63694456  0.20669319    -0.19900
C1010       C  0.83753063  0.63949889  0.18295734     0.36300
C1011       C  0.85682901  0.61897739  0.17676049    -0.25900
C1012       C  0.86026384  0.59622327  0.19398592     0.02700
C1013       C  0.84258549  0.59272543  0.21658630     0.27600
C1014       C  0.82320943  0.61312032  0.22270628    -0.25000
N1015       N  0.83623571  0.66398161  0.16665632    -0.82400
H1016       H  0.87053735  0.62165666  0.15949081     0.13400
C1017       C  0.88473174  0.57845521  0.19042127     0.02700
N1018       N  0.84532593  0.56908667  0.23393272    -0.81000
H1019       H  0.81080764  0.61130439  0.24105299     0.18200
C1020       C  0.90435235  0.57781602  0.21145896    -0.25800
C1021       C  0.92858420  0.56250951  0.20887750     0.36200
C1022       C  0.93341113  0.54748242  0.18456252    -0.19800
C1023       C  0.91382908  0.54838450  0.16333335    -0.25100
C1024       C  0.88949197  0.56363593  0.16606521     0.27600
H1025       H  0.90088363  0.58974242  0.22990452     0.13300
N1026       N  0.94870712  0.56318413  0.23041963    -0.82400
H1027       H  0.91743143  0.53698920  0.14458501     0.18200
N1028       N  0.86963315  0.56416851  0.14427867    -0.81000
H1029       H  0.94306492  0.57718388  0.24565636     0.33800
H1030       H  0.94866867  0.54393471  0.23979137     0.38300
H1031       H  0.87628246  0.55232325  0.12768229     0.33800
H1032       H  0.85171950  0.55494581  0.15159584     0.30500
H1033       H  0.83107421  0.56976682  0.24992586     0.33800
H1034       H  0.84051569  0.55183025  0.22211734     0.30500
H1035       H  0.81711986  0.66425578  0.15699314     0.38400
H1036       H  0.85083521  0.66337445  0.15097740     0.33800
C1037       C  0.07193672  0.45725717  0.18987372    -0.19900
C1038       C  0.09406643  0.45679167  0.17113790     0.36300
C1039       C  0.11618866  0.43897681  0.17569608    -0.25900
C1040       C  0.11689840  0.42179023  0.19866385     0.02700
C1041       C  0.09528818  0.42292153  0.21794543     0.27600
C1042       C  0.07312984  0.44084762  0.21345896    -0.25000
N1043       N  0.09409125  0.47450807  0.14759043    -0.82400
H1044       H  0.13303064  0.43843160  0.16122821     0.13400
C1045       C  0.14020763  0.40242437  0.20197633     0.02700
N1046       N  0.09559691  0.40536311  0.24159828    -0.81000
H1047       H  0.05625015  0.44123600  0.22788690     0.18200
C1048       C  0.15674761  0.40415922  0.22543042    -0.25800
C1049       C  0.17735652  0.38476981  0.23035153     0.36200
C1050       C  0.18188753  0.36332207  0.21144241    -0.19800
C1051       C  0.16660120  0.36262243  0.18707633    -0.25100
C1052       C  0.14558405  0.38182935  0.18225126     0.27600
H1053       H  0.15305660  0.42014302  0.24044159     0.13300
N1054       N  0.19291353  0.38609273  0.25525020    -0.82400
H1055       H  0.16959082  0.34580294  0.17284926     0.18200
N1056       N  0.12880058  0.37969057  0.15809115    -0.81000
H1057       H  0.17925235  0.38501732  0.27173513     0.33800
H1058       H  0.20270281  0.40515708  0.25602072     0.38300
H1059       H  0.13536135  0.36345832  0.14571455     0.33800
H1060       H  0.10888836  0.37489271  0.16441009     0.30500
H1061       H  0.07828245  0.40875654  0.25376111     0.33800
H1062       H  0.09432423  0.38511814  0.23463602     0.30500
H1063       H  0.09492936  0.49471159  0.15473650     0.38400
H1064       H  0.11172799  0.47147141  0.13579633     0.33800
C1065       C  0.95762994  0.43381901  0.15528421    -0.19900
C1066       C  0.94635852  0.42826883  0.12911596     0.36300
C1067       C  0.92680124  0.40723629  0.12627925    -0.25900
C1068       C  0.91895608  0.39117149  0.14874726     0.02700
C1069       C  0.93167830  0.39514376  0.17432049     0.27600
C1070       C  0.95074442  0.41656829  0.17740335    -0.25000
N1071       N  0.95400748  0.44445782  0.10573175    -0.82400
H1072       H  0.91710628  0.40370682  0.10657418     0.13400
C1073       C  0.89572218  0.37196854  0.14544965     0.02700
N1074       N  0.92510837  0.37751119  0.19700180    -0.81000
H1075       H  0.95980877  0.42016042  0.19738290     0.18200
C1076       C  0.90038758  0.34528102  0.13583085    -0.25800
C1077       C  0.87829632  0.32799057  0.12888490     0.36200
C1078       C  0.85127571  0.33784991  0.13149356    -0.19800
C1079       C  0.84669489  0.36408788  0.14232818    -0.25100
C1080       C  0.86868900  0.38125458  0.14943073     0.27600
H1081       H  0.92125958  0.33837131  0.13278926     0.13300
N1082       N  0.88316693  0.30119777  0.11762687    -0.82400
H1083       H  0.82587165  0.37159201  0.14408740     0.18200
N1084       N  0.86376506  0.40861500  0.15926765    -0.81000
H1085       H  0.90420807  0.29745580  0.11615256     0.33800
H1086       H  0.87541106  0.28685604  0.13151728     0.38300
H1087       H  0.84272746  0.41249924  0.16035865     0.33800
H1088       H  0.87120079  0.40984636  0.17933821     0.30500
H1089       H  0.93662909  0.38290036  0.21428499     0.33800
H1090       H  0.90456739  0.38064959  0.20214706     0.30500
H1091       H  0.97457821  0.44024597  0.10148883     0.38400
H1092       H  0.94294931  0.43836517  0.08837524     0.33800
C1093       C  0.28314688  0.83677706  0.56726386    -0.19900
C1094       C  0.26257357  0.85674361  0.57066417     0.36300
C1095       C  0.25809209  0.87612378  0.54979932    -0.25900
C1096       C  0.27410765  0.87615894  0.52586189     0.02700
C1097       C  0.29366445  0.85527069  0.52186915     0.27600
C1098       C  0.29807641  0.83584362  0.54269538    -0.25000
N1099       N  0.24717212  0.85796510  0.59577161    -0.82400
H1100       H  0.24300391  0.89212087  0.55279230     0.13400
C1101       C  0.27111039  0.89897532  0.50585945     0.02700
N1102       N  0.30943817  0.85436721  0.49699554    -0.81000
H1103       H  0.31422321  0.82078599  0.54041593     0.18200
C1104       C  0.29363309  0.91607267  0.50026897    -0.25800
C1105       C  0.29140583  0.93837863  0.48204534     0.36200
C1106       C  0.26592184  0.94382971  0.46930718    -0.19800
C1107       C  0.24347314  0.92660705  0.47509167    -0.25100
C1108       C  0.24582275  0.90426519  0.49305427     0.27600
H1109       H  0.31298970  0.91210619  0.51041408     0.13300
N1110       N  0.31472987  0.95569536  0.47704018    -0.82400
H1111       H  0.22384619  0.93049880  0.46547725     0.18200
N1112       N  0.22262367  0.88684069  0.49830223    -0.81000
H1113       H  0.33134222  0.94969338  0.48917259     0.33800
H1114       H  0.32073471  0.95260064  0.45669148     0.38300
H1115       H  0.20543970  0.89361218  0.48744819     0.33800
H1116       H  0.22730446  0.86733531  0.49074244     0.30500
H1117       H  0.32308818  0.83787429  0.49734618     0.33800
H1118       H  0.29582841  0.85068745  0.48082297     0.30500
H1119       H  0.26071692  0.86319906  0.61156775     0.38400
H1120       H  0.23260262  0.87362969  0.59487200     0.33800
C1121       C  0.26714716  0.07619942  0.36949528    -0.19900
C1122       C  0.29287305  0.08080063  0.35694678     0.36300
C1123       C  0.29608479  0.10303866  0.33884250    -0.25900
C1124       C  0.27407528  0.12040538  0.33252435     0.02700
C1125       C  0.24849787  0.11602860  0.34510096     0.27600
C1126       C  0.24530492  0.09405664  0.36346961    -0.25000
N1127       N  0.31541420  0.06253415  0.36189914    -0.82400
H1128       H  0.31563241  0.10632616  0.32881896     0.13400
C1129       C  0.27784439  0.14197343  0.31138080     0.02700
N1130       N  0.22585768  0.13382856  0.33899912    -0.81000
H1131       H  0.22551478  0.09077097  0.37298545     0.18200
C1132       C  0.26388225  0.13958363  0.28629513    -0.25800
C1133       C  0.26994257  0.15715952  0.26426036     0.36200
C1134       C  0.28966256  0.17803086  0.26778830    -0.19800
C1135       C  0.30254379  0.18133581  0.29329780    -0.25100
C1136       C  0.29688151  0.16343155  0.31515447     0.27600
H1137       H  0.24937858  0.12297173  0.28343872     0.13300
N1138       N  0.25711267  0.15315445  0.23798805    -0.82400
H1139       H  0.31809981  0.19704931  0.29566616     0.18200
N1140       N  0.31100774  0.16632865  0.34087352    -0.81000
H1141       H  0.24298072  0.13704368  0.23888125     0.33800
H1142       H  0.27229304  0.14710644  0.22412181     0.38300
H1143       H  0.32458254  0.18292213  0.34021060     0.33800
H1144       H  0.29636721  0.17098285  0.35581434     0.30500
H1145       H  0.20837589  0.12776533  0.34981206     0.33800
H1146       H  0.23097173  0.15343209  0.34605925     0.30500
H1147       H  0.31025588  0.04352068  0.35338770     0.38400
H1148       H  0.33296344  0.06921035  0.35156361     0.33800
C1149       C  0.22496558  0.85662638  0.24996519    -0.19900
C1150       C  0.22511802  0.88382007  0.24033737     0.36300
C1151       C  0.23059489  0.90547847  0.25870818    -0.25900
C1152       C  0.23562795  0.90016027  0.28656252     0.02700
C1153       C  0.23768854  0.87286577  0.29566756     0.27600
C1154       C  0.23241475  0.85136200  0.27726111    -0.25000
N1155       N  0.21796336  0.88955720  0.21245199    -0.82400
H1156       H  0.22931776  0.92646816  0.25159706     0.13400
C1157       C  0.23617273  0.92282614  0.30684628     0.02700
N1158       N  0.24372454  0.86723150  0.32396989    -0.81000
H1159       H  0.23224619  0.83042357  0.28466042     0.18200
C1160       C  0.21370259  0.92603639  0.32451364    -0.25800
C1161       C  0.21443042  0.94484160  0.34643797     0.36200
C1162       C  0.23840868  0.96053536  0.35094563    -0.19800
C1163       C  0.26045720  0.95795620  0.33246982    -0.25100
C1164       C  0.25958312  0.93925232  0.31049832     0.27600
H1165       H  0.19576261  0.91323451  0.32153724     0.13300
N1166       N  0.19142566  0.94704353  0.36470494    -0.82400
H1167       H  0.27878931  0.97014503  0.33555021     0.18200
N1168       N  0.28260198  0.93635671  0.29234486    -0.81000
H1169       H  0.17617965  0.93291803  0.35935742     0.33800
H1170       H  0.18284511  0.96645208  0.36187330     0.38300
H1171       H  0.29818294  0.95008720  0.29773774     0.33800
H1172       H  0.29057915  0.91666670  0.29505348     0.30500
H1173       H  0.24404080  0.84610190  0.32750208     0.33800
H1174       H  0.26352640  0.87444827  0.32793568     0.30500
H1175       H  0.23424392  0.90027335  0.20353721     0.38400
H1176       H  0.20082844  0.90239464  0.21248920     0.33800
C1177       C  0.55606812  0.93604587  0.17802588    -0.19900
C1178       C  0.57116601  0.93080986  0.20225224     0.36300
C1179       C  0.58965742  0.90868866  0.20286734    -0.25900
C1180       C  0.59320385  0.89155840  0.18002203     0.02700
C1181       C  0.57803912  0.89641023  0.15601833     0.27600
C1182       C  0.55957520  0.91851675  0.15527634    -0.25000
N1183       N  0.56841333  0.94831583  0.22583033    -0.82400
H1184       H  0.60161084  0.90485757  0.22120837     0.13400
C1185       C  0.61398943  0.86950646  0.18140809     0.02700
N1186       N  0.58164554  0.87902651  0.13246079    -0.81000
H1187       H  0.54811984  0.92226918  0.13662044     0.18200
C1188       C  0.60620338  0.84291306  0.18919144    -0.25800
C1189       C  0.62612278  0.82296201  0.19547588     0.36200
C1190       C  0.65411544  0.83004654  0.19403660    -0.19800
C1191       C  0.66170070  0.85590088  0.18394898    -0.25100
C1192       C  0.64190524  0.87572709  0.17764342     0.27600
H1193       H  0.58464195  0.83821172  0.19172272     0.13300
N1194       N  0.61809992  0.79630921  0.20508686    -0.82400
H1195       H  0.68325019  0.86122277  0.18280974     0.18200
N1196       N  0.65002359  0.90268021  0.16893636    -0.81000
H1197       H  0.59673774  0.79467756  0.20569194     0.33800
H1198       H  0.62482115  0.78196417  0.19064046     0.38300
H1199       H  0.67137410  0.90410970  0.16772108     0.33800
H1200       H  0.64257771  0.90553095  0.14903785     0.30500
H1201       H  0.56879692  0.88522480  0.11647019     0.33800
H1202       H  0.60173755  0.88162172  0.12548246     0.30500
H1203       H  0.54882234  0.94512334  0.23389571     0.38400
H1204       H  0.58220078  0.94257118  0.24120188     0.33800
C1205       C  0.45853646  0.07173089  0.17946940    -0.19900
C1206       C  0.44142434  0.07477633  0.20265460     0.36300
C1207       C  0.42336184  0.09722805  0.20413544    -0.25900
C1208       C  0.42179271  0.11653007  0.18288465     0.02700
C1209       C  0.43906675  0.11381025  0.15993323     0.27600
C1210       C  0.45729925  0.09148337  0.15847617    -0.25000
N1211       N  0.44165173  0.05461054  0.22411878    -0.82400
H1212       H  0.40979938  0.09930948  0.22160925     0.13400
C1213       C  0.40034009  0.13809271  0.18424185     0.02700
N1214       N  0.43769661  0.13346247  0.13804759    -0.81000
H1215       H  0.47036184  0.08927895  0.14064567     0.18200
C1216       C  0.40701949  0.16468766  0.19305389    -0.25800
C1217       C  0.38645642  0.18413565  0.19868091     0.36200
C1218       C  0.35854405  0.17688067  0.19477555    -0.19800
C1219       C  0.35222203  0.15083459  0.18412628    -0.25100
C1220       C  0.37275858  0.13132654  0.17908718     0.27600
H1221       H  0.42825523  0.16987426  0.19706565     0.13300
N1222       N  0.39462594  0.21011585  0.21003516    -0.82400
H1223       H  0.33090468  0.14505362  0.18158703     0.18200
N1224       N  0.36565404  0.10413327  0.17013082    -0.81000
H1225       H  0.40651938  0.22012510  0.19528582     0.33800
H1226       H  0.37779600  0.22272083  0.21378779     0.38300
H1227       H  0.34442752  0.10219940  0.16787879     0.33800
H1228       H  0.37415784  0.10127380  0.15065907     0.30500
H1229       H  0.45188030  0.12864773  0.12271705     0.33800
H1230       H  0.41828239  0.13186732  0.12909027     0.30500
H1231       H  0.43429163  0.03624422  0.21579843     0.38400
H1232       H  0.42806037  0.06006776  0.23976913     0.33800
C1233       C  0.33215102  0.85693908  0.14018353    -0.19900
C1234       C  0.32640295  0.88449454  0.13382287     0.36300
C1235       C  0.34615070  0.90479881  0.13963913    -0.25900
C1236       C  0.37156471  0.89785366  0.15122175     0.02700
C1237       C  0.37668013  0.87031439  0.15880285     0.27600
C1238       C  0.35676256  0.85033633  0.15342985    -0.25000
N1239       N  0.30109013  0.89152859  0.12050182    -0.82400
H1240       H  0.34227758  0.92590966  0.13397660     0.13400
C1241       C  0.39321610  0.91908858  0.15326643     0.02700
N1242       N  0.40216288  0.86158311  0.17080626    -0.81000
H1243       H  0.36136889  0.82906397  0.15786479     0.18200
C1244       C  0.39850201  0.93143308  0.17863675    -0.25800
C1245       C  0.42091226  0.94927932  0.18216177     0.36200
C1246       C  0.43823014  0.95520346  0.15953963    -0.19800
C1247       C  0.43206274  0.94357672  0.13384459    -0.25100
C1248       C  0.40985677  0.92543015  0.13053542     0.27600
H1249       H  0.38556423  0.92637965  0.19597353     0.13300
N1250       N  0.42594387  0.96131680  0.20863310    -0.82400
H1251       H  0.44502383  0.94808839  0.11638705     0.18200
N1252       N  0.40428759  0.91314683  0.10427932    -0.81000
H1253       H  0.40993593  0.95679506  0.22213811     0.33800
H1254       H  0.44334553  0.95185263  0.21677664     0.38300
H1255       H  0.41824053  0.92014761  0.08959800     0.33800
H1256       H  0.40743915  0.89203605  0.10612816     0.30500
H1257       H  0.41161606  0.84828410  0.15690390     0.33800
H1258       H  0.41571828  0.87785313  0.17387220     0.30500
H1259       H  0.30114583  0.88250052  0.10103602     0.38400
H1260       H  0.29994496  0.91269939  0.11742305     0.33800
C1261       C  0.27338972  0.54728055  0.84457409    -0.19900
C1262       C  0.25498787  0.54568807  0.82217459     0.36300
C1263       C  0.25901566  0.56264441  0.79920546    -0.25900
C1264       C  0.28120687  0.58084848  0.79797800     0.02700
C1265       C  0.30031620  0.58155711  0.81975543     0.27600
C1266       C  0.29630655  0.56458780  0.84276175    -0.25000
N1267       N  0.23208912  0.52710449  0.82297541    -0.82400
H1268       H  0.24446167  0.56214417  0.78241045     0.13400
C1269       C  0.28262504  0.60102325  0.77519912     0.02700
N1270       N  0.32280036  0.60062977  0.81913096    -0.81000
H1271       H  0.31039803  0.56586120  0.85990706     0.18200
C1272       C  0.26472050  0.62349717  0.77597539    -0.25800
C1273       C  0.26744136  0.64548074  0.75763280     0.36200
C1274       C  0.28857797  0.64489659  0.73773712    -0.19800
C1275       C  0.30513939  0.62143844  0.73568140    -0.25100
C1276       C  0.30240701  0.59946174  0.75403288     0.27600
H1277       H  0.24932328  0.62464219  0.79195891     0.13300
N1278       N  0.24961155  0.66866948  0.76109527    -0.82400
H1279       H  0.32151105  0.62093450  0.72066395     0.18200
N1280       N  0.32024295  0.57625259  0.75073364    -0.81000
H1281       H  0.22956452  0.66190679  0.75761229     0.33800
H1282       H  0.25343092  0.68380973  0.74650300     0.38300
H1283       H  0.34034001  0.58289137  0.75417328     0.33800
H1284       H  0.31607706  0.56095813  0.76508729     0.30500
H1285       H  0.33416456  0.59950251  0.83728830     0.33800
H1286       H  0.33599512  0.59460691  0.80339554     0.30500
H1287       H  0.23992580  0.50717682  0.82353460     0.38400
H1288       H  0.22048086  0.52856824  0.80500129     0.33800
C1289       C  0.28598697  0.36178430  0.08980727    -0.19900
C1290       C  0.29142396  0.38923864  0.09773906     0.36300
C1291       C  0.28681263  0.41050544  0.07884674    -0.25900
C1292       C  0.27717855  0.40490498  0.05230106     0.02700
C1293       C  0.27005372  0.37787298  0.04507031     0.27600
C1294       C  0.27441247  0.35661917  0.06392085    -0.25000
N1295       N  0.30320860  0.39615773  0.12389736    -0.82400
H1296       H  0.29205898  0.43136988  0.08445476     0.13400
C1297       C  0.27620253  0.42690373  0.03136408     0.02700
N1298       N  0.25962833  0.37202791  0.01809026    -0.81000
H1299       H  0.27054296  0.33561030  0.05772773     0.18200
C1300       C  0.29604954  0.42717426  0.01055462    -0.25800
C1301       C  0.29395342  0.44516752  0.98810596     0.36200
C1302       C  0.27159125  0.46349472  0.98663316    -0.19800
C1303       C  0.25235500  0.46387042  0.00816204    -0.25100
C1304       C  0.25442918  0.44572393  0.03048647     0.27600
H1305       H  0.31267867  0.41249628  0.01134757     0.13300
N1306       N  0.31378631  0.44399235  0.96634480    -0.82400
H1307       H  0.23523083  0.47794791  0.00724189     0.18200
N1308       N  0.23419982  0.44585068  0.05191014    -0.81000
H1309       H  0.32914868  0.42979595  0.97090853     0.33800
H1310       H  0.30377105  0.43664275  0.94883764     0.38300
H1311       H  0.21955820  0.46104885  0.04830147     0.33800
H1312       H  0.22383437  0.42708801  0.05119229     0.30500
H1313       H  0.25582726  0.35105133  0.01581019     0.33800
H1314       H  0.24071401  0.38188998  0.01619784     0.30500
H1315       H  0.30594552  0.37886735  0.13613701     0.38400
H1316       H  0.28916191  0.40862238  0.13420762     0.33800
C1317       C  0.23420370  0.43839121  0.87481794    -0.19900
C1318       C  0.25109313  0.41487445  0.87614554     0.36300
C1319       C  0.24673301  0.39305405  0.85771935    -0.25900
C1320       C  0.22568809  0.39409131  0.83819802     0.02700
C1321       C  0.20803385  0.41701740  0.83762827     0.27600
C1322       C  0.21232416  0.43884026  0.85612541    -0.25000
N1323       N  0.27270091  0.41329602  0.89614558    -0.82400
H1324       H  0.25995375  0.37524271  0.85836873     0.13400
C1325       C  0.22272499  0.37155749  0.81779783     0.02700
N1326       N  0.18636510  0.41839080  0.81767161    -0.81000
H1327       H  0.19937726  0.45682746  0.85502896     0.18200
C1328       C  0.19856697  0.35601147  0.81748613    -0.25800
C1329       C  0.19314804  0.33734065  0.79632572     0.36200
C1330       C  0.21220048  0.33434602  0.77458663    -0.19800
C1331       C  0.23739434  0.34818490  0.77606176    -0.25100
C1332       C  0.24285701  0.36685151  0.79750802     0.27600
H1333       H  0.18335518  0.35908406  0.83338417     0.13300
N1334       N  0.16772110  0.32240303  0.79708711    -0.82400
H1335       H  0.25189812  0.34604282  0.75937140     0.18200
N1336       N  0.26809923  0.38208528  0.79798026    -0.81000
H1337       H  0.15184425  0.33636282  0.79370964     0.33800
H1338       H  0.16668151  0.30757853  0.78164661     0.38300
H1339       H  0.28069810  0.37620469  0.78166611     0.33800
H1340       H  0.26332918  0.40273993  0.79491435     0.30500
H1341       H  0.17524436  0.43655423  0.81993352     0.33800
H1342       H  0.19541660  0.41910970  0.79825030     0.30500
H1343       H  0.26358384  0.41332076  0.91555080     0.38400
H1344       H  0.28326106  0.39474646  0.89435828     0.33800
C1345       C  0.64838835  0.28399810  0.74100686    -0.19900
C1346       C  0.65071787  0.26429603  0.76195611     0.36300
C1347       C  0.62876504  0.26045786  0.78017747    -0.25900
C1348       C  0.60472553  0.27613142  0.77793090     0.02700
C1349       C  0.60184477  0.29462306  0.75591513     0.27600
C1350       C  0.62379168  0.29842202  0.73770379    -0.25000
N1351       N  0.67581376  0.24927378  0.76541940    -0.82400
H1352       H  0.63101388  0.24631127  0.79713710     0.13400
C1353       C  0.58369584  0.27425091  0.79985897     0.02700
N1354       N  0.57701729  0.31011412  0.75273607    -0.81000
H1355       H  0.62240666  0.31395978  0.72190145     0.18200
C1356       C  0.57572727  0.29807696  0.81399053    -0.25800
C1357       C  0.55724037  0.29687712  0.83609332     0.36200
C1358       C  0.54735003  0.27108907  0.84486430    -0.19800
C1359       C  0.55492905  0.24741797  0.83022353    -0.25100
C1360       C  0.57265281  0.24877052  0.80766489     0.27600
H1361       H  0.58432074  0.31766534  0.80800023     0.13300
N1362       N  0.54901859  0.32163224  0.84982380    -0.82400
H1363       H  0.54710665  0.22759149  0.83645054     0.18200
N1364       N  0.57958806  0.22434286  0.79267663    -0.81000
H1365       H  0.55896698  0.33863136  0.84136702     0.33800
H1366       H  0.52811935  0.32438470  0.84597591     0.38300
H1367       H  0.56985944  0.20722329  0.80113902     0.33800
H1368       H  0.57190349  0.22651917  0.77277518     0.30500
H1369       H  0.57834427  0.32304841  0.73570893     0.33800
H1370       H  0.56119468  0.29620769  0.74867460     0.30500
H1371       H  0.69110435  0.26319944  0.77113686     0.38400
H1372       H  0.67400646  0.23529393  0.78155248     0.33800
C1373       C  0.35645753  0.29063136  0.08791440    -0.19900
C1374       C  0.35160350  0.27219414  0.06597332     0.36300
C1375       C  0.37250745  0.26725148  0.04695420    -0.25900
C1376       C  0.39808833  0.28016668  0.04935643     0.02700
C1377       C  0.40353021  0.29711633  0.07214320     0.27600
C1378       C  0.38255446  0.30231187  0.09117940    -0.25000
N1379       N  0.32538584  0.25942322  0.06142442    -0.82400
H1380       H  0.36833407  0.25416471  0.02944362     0.13400
C1381       C  0.41819422  0.27722724  0.02681865     0.02700
N1382       N  0.43004235  0.30962419  0.07529275    -0.81000
H1383       H  0.38606765  0.31669491  0.10778781     0.18200
C1384       C  0.42567544  0.30044277  0.01159500    -0.25800
C1385       C  0.44308750  0.29829707  0.98872330     0.36200
C1386       C  0.45368436  0.27234406  0.98134721    -0.19800
C1387       C  0.44632511  0.24922320  0.99694397    -0.25100
C1388       C  0.42864776  0.25139456  0.01950827     0.27600
H1389       H  0.41717753  0.32020219  0.01712772     0.13300
N1390       N  0.44951431  0.32225801  0.97283349    -0.82400
H1391       H  0.45426423  0.22922973  0.99146547     0.18200
N1392       N  0.42116109  0.22748441  0.03500836    -0.81000
H1393       H  0.44082229  0.33974013  0.98167496     0.33800
H1394       H  0.44018541  0.31991030  0.95365232     0.38300
H1395       H  0.43043194  0.20997821  0.02683702     0.33800
H1396       H  0.42896314  0.22994606  0.05484137     0.30500
H1397       H  0.43064843  0.32167017  0.09304272     0.33800
H1398       H  0.44428532  0.29388510  0.07808871     0.30500
H1399       H  0.31142058  0.26433000  0.07686580     0.38400
H1400       H  0.32824961  0.23822505  0.06252129     0.33800
C1401       C  0.32264685  0.22291318  0.77362339    -0.19900
C1402       C  0.34232876  0.24377027  0.77000994     0.36300
C1403       C  0.36200404  0.24851465  0.79066306    -0.25900
C1404       C  0.36229546  0.23282254  0.81480527     0.02700
C1405       C  0.34109435  0.21345360  0.81929504     0.27600
C1406       C  0.32173470  0.20860631  0.79854150    -0.25000
N1407       N  0.34338170  0.25869384  0.74463787    -0.82400
H1408       H  0.37796399  0.26363791  0.78740700     0.13400
C1409       C  0.38583232  0.23597876  0.83400209     0.02700
N1410       N  0.33869095  0.19817253  0.84438276    -0.81000
H1411       H  0.30660921  0.19255542  0.80135227     0.18200
C1412       C  0.38757427  0.25940937  0.85055139    -0.25800
C1413       C  0.41004723  0.26363543  0.86822077     0.36200
C1414       C  0.43157844  0.24420644  0.86895276    -0.19800
C1415       C  0.42947495  0.22045367  0.85276788    -0.25100
C1416       C  0.40692899  0.21621698  0.83516017     0.27600
H1417       H  0.37127628  0.27444314  0.84965965     0.13300
N1418       N  0.41096245  0.28752251  0.88551814    -0.82400
H1419       H  0.44590630  0.20555176  0.85319319     0.18200
N1420       N  0.40597494  0.19254400  0.81756853    -0.81000
H1421       H  0.39371708  0.29980757  0.88232906     0.33800
H1422       H  0.41000201  0.28083769  0.90586583     0.38300
H1423       H  0.42361078  0.18065513  0.82006145     0.33800
H1424       H  0.38957357  0.18031202  0.82385256     0.30500
H1425       H  0.34166406  0.17746652  0.83975789     0.33800
H1426       H  0.35369256  0.20376517  0.85861701     0.30500
H1427       H  0.32535778  0.27015300  0.74317090     0.38400
H1428       H  0.35955393  0.27278122  0.74490530     0.33800
C1429       C  0.67533938  0.15287105  0.12968516    -0.19900
C1430       C  0.65353214  0.15556789  0.14864821     0.36300
C1431       C  0.63704203  0.13275099  0.15440994    -0.25900
C1432       C  0.64168665  0.10733130  0.14174493     0.02700
C1433       C  0.66435967  0.10421125  0.12411881     0.27600
C1434       C  0.68091044  0.12709382  0.11815282    -0.25000
N1435       N  0.64658660  0.18129441  0.16130395    -0.82400
H1436       H  0.61959349  0.13523812  0.16793654     0.13400
C1437       C  0.62099845  0.08522648  0.14526410     0.02700
N1438       N  0.66998327  0.07802529  0.11183349    -0.81000
H1439       H  0.69751105  0.12513938  0.10352319     0.18200
C1440       C  0.60570342  0.07652295  0.12245649    -0.25800
C1441       C  0.58288566  0.05906000  0.12546592     0.36200
C1442       C  0.57543784  0.04980760  0.15194433    -0.19800
C1443       C  0.59178329  0.05748459  0.17451644    -0.25100
C1444       C  0.61442806  0.07504769  0.17143950     0.27600
H1445       H  0.61079210  0.08450693  0.10236135     0.13300
N1446       N  0.56695783  0.05145499  0.10182489    -0.82400
H1447       H  0.58663185  0.05014466  0.19483006     0.18200
N1448       N  0.63055701  0.08299415  0.19483553    -0.81000
H1449       H  0.57590864  0.05908879  0.08390936     0.33800
H1450       H  0.54789869  0.06106129  0.10357550     0.38300
H1451       H  0.62297350  0.07386362  0.21267854     0.33800
H1452       H  0.65033929  0.07531693  0.19192926     0.30500
H1453       H  0.68729202  0.07921691  0.09925382     0.33800
H1454       H  0.67482478  0.06443476  0.12766554     0.30500
H1455       H  0.66007349  0.19688674  0.15560900     0.38400
H1456       H  0.64882273  0.17890603  0.18249824     0.33800
C1457       C  0.57141947  0.24878374  0.96022759    -0.19900
C1458       C  0.59134973  0.26981820  0.96296525     0.36300
C1459       C  0.61361866  0.26620498  0.98105047    -0.25900
C1460       C  0.61667957  0.24187643  0.99595433     0.02700
C1461       C  0.59723016  0.22068191  0.99279235     0.27600
C1462       C  0.57490758  0.22431427  0.97491368    -0.25000
N1463       N  0.58900296  0.29471028  0.94740129    -0.82400
H1464       H  0.62863004  0.28240899  0.98361421     0.13400
C1465       C  0.63924272  0.23914660  0.01619887     0.02700
N1466       N  0.59956878  0.19601325  0.00872606    -0.81000
H1467       H  0.55973277  0.20818449  0.97302356     0.18200
C1468       C  0.63656299  0.25180289  0.04188314    -0.25800
C1469       C  0.65424334  0.24530168  0.06361232     0.36200
C1470       C  0.67508062  0.22553354  0.05947234    -0.19800
C1471       C  0.67909769  0.21455328  0.03314588    -0.25100
C1472       C  0.66149683  0.22142918  0.01133722     0.27600
H1473       H  0.61961387  0.26566641  0.04553799     0.13300
N1474       N  0.64931092  0.25789127  0.08985498    -0.82400
H1475       H  0.69511405  0.19951256  0.02999237     0.18200
N1476       N  0.66519391  0.20947142  0.98463698    -0.81000
H1477       H  0.65227531  0.27899124  0.08754216     0.33800
H1478       H  0.66340393  0.25151248  0.10460529     0.38300
H1479       H  0.68231311  0.19661215  0.98450390     0.33800
H1480       H  0.66940579  0.22541871  0.97096692     0.30500
H1481       H  0.58290026  0.18302565  0.00501996     0.33800
H1482       H  0.61694218  0.18550376  0.00197692     0.30500
H1483       H  0.59113712  0.28957641  0.92667857     0.38400
H1484       H  0.60509284  0.30811806  0.95207564     0.33800
C1485       C  0.04947788  0.24927786  0.48156692    -0.19900
C1486       C  0.05959558  0.27236217  0.49616912     0.36300
C1487       C  0.07660266  0.26837365  0.51912938    -0.25900
C1488       C  0.08403199  0.24200481  0.52764067     0.02700
C1489       C  0.07366410  0.21900554  0.51349138     0.27600
C1490       C  0.05638926  0.22287866  0.49076696    -0.25000
N1491       N  0.05289168  0.29975103  0.48767786    -0.82400
H1492       H  0.08472611  0.28594462  0.53009781     0.13400
C1493       C  0.10451861  0.23872919  0.54988939     0.02700
N1494       N  0.08123492  0.19180721  0.52188632    -0.81000
H1495       H  0.04870847  0.20508041  0.47987736     0.18200
C1496       C  0.09746848  0.22450661  0.57390600    -0.25800
C1497       C  0.11747322  0.21812430  0.59369076     0.36200
C1498       C  0.14473885  0.22664225  0.58950619    -0.19800
C1499       C  0.15147658  0.24200210  0.56621099    -0.25100
C1500       C  0.13170877  0.24787636  0.54616192     0.27600
H1501       H  0.07658258  0.21743151  0.57661346     0.13300
N1502       N  0.11066409  0.20168809  0.61715797    -0.82400
H1503       H  0.17267720  0.24770746  0.56275586     0.18200
N1504       N  0.13942272  0.26178582  0.52134759    -0.81000
H1505       H  0.11402028  0.21367882  0.63464146     0.33800
H1506       H  0.08982343  0.19667153  0.61700573     0.38300
H1507       H  0.16020546  0.26705414  0.52179456     0.33800
H1508       H  0.13693636  0.24798789  0.50509808     0.30500
H1509       H  0.07172243  0.17711564  0.50946263     0.33800
H1510       H  0.10233546  0.18970792  0.51879999     0.30500
H1511       H  0.06295265  0.30334192  0.46909959     0.38400
H1512       H  0.06069474  0.31414012  0.50157596     0.33800
C1513       C  0.23089063  0.05617998  0.48541437    -0.19900
C1514       C  0.24199894  0.05008464  0.51147288     0.36300
C1515       C  0.23779171  0.06840057  0.53337386    -0.25900
C1516       C  0.22342399  0.09291626  0.52945168     0.02700
C1517       C  0.21167324  0.09860500  0.50360770     0.27600
C1518       C  0.21528488  0.07997809  0.48188214    -0.25000
N1519       N  0.25719975  0.02520983  0.51568489    -0.82400
H1520       H  0.24657938  0.06407188  0.55331793     0.13400
C1521       C  0.22188026  0.11321938  0.55206035     0.02700
N1522       N  0.19661364  0.12356220  0.49946233    -0.81000
H1523       H  0.20688735  0.08458664  0.46182790     0.18200
C1524       C  0.23482559  0.13865484  0.54870738    -0.25800
C1525       C  0.23122568  0.15981673  0.56777514     0.36200
C1526       C  0.21453500  0.15530852  0.59109269    -0.19800
C1527       C  0.20315477  0.12921628  0.59542283    -0.25100
C1528       C  0.20654992  0.10809175  0.57601326     0.27600
H1529       H  0.24693935  0.14246567  0.53046896     0.13300
N1530       N  0.24370074  0.18592653  0.56209694    -0.82400
H1531       H  0.18983049  0.12601071  0.61290961     0.18200
N1532       N  0.19335166  0.08200783  0.57979638    -0.81000
H1533       H  0.23423285  0.19395760  0.54462010     0.33800
H1534       H  0.24057901  0.19990024  0.57800432     0.38300
H1535       H  0.18279684  0.08159594  0.59846087     0.33800
H1536       H  0.17862922  0.07982073  0.56435879     0.30500
H1537       H  0.18958992  0.12482811  0.47923111     0.33800
H1538       H  0.17924238  0.12279508  0.51197445     0.30500
H1539       H  0.27568089  0.02694741  0.50501131     0.38400
H1540       H  0.26246377  0.02307788  0.53636495     0.33800
C1541       C  0.05357261  0.56930042  0.15999524    -0.19900
C1542       C  0.06603392  0.57527889  0.13448596     0.36300
C1543       C  0.08585950  0.59622287  0.13296807    -0.25900
C1544       C  0.09337797  0.61143770  0.15621549     0.02700
C1545       C  0.08074224  0.60595227  0.18152418     0.27600
C1546       C  0.06086177  0.58508736  0.18313923    -0.25000
N1547       N  0.05923178  0.55966666  0.11038808    -0.82400
H1548       H  0.09585499  0.60051482  0.11359529     0.13400
C1549       C  0.11585165  0.63178671  0.15381404     0.02700
N1550       N  0.08851067  0.62125984  0.20553190    -0.81000
H1551       H  0.05148775  0.58074192  0.20279641     0.18200
C1552       C  0.10977970  0.65963596  0.14998917    -0.25800
C1553       C  0.13063714  0.67863220  0.14352145     0.36200
C1554       C  0.15798934  0.66949940  0.14134097    -0.19800
C1555       C  0.16407958  0.64192445  0.14695553    -0.25100
C1556       C  0.14328685  0.62298031  0.15308241     0.27600
H1557       H  0.08860292  0.66624563  0.15068730     0.13300
N1558       N  0.12399097  0.70673730  0.13781411    -0.82400
H1559       H  0.18506695  0.63490363  0.14515919     0.18200
N1560       N  0.14971490  0.59456157  0.15739863    -0.81000
H1561       H  0.10298893  0.71010366  0.14036611     0.33800
H1562       H  0.12829266  0.71036953  0.11712810     0.38300
H1563       H  0.17081860  0.59130635  0.15569360     0.33800
H1564       H  0.14438784  0.58972381  0.17758936     0.30500
H1565       H  0.07718825  0.61480129  0.22254746     0.33800
H1566       H  0.10901464  0.61675933  0.20979345     0.30500
H1567       H  0.03901078  0.56441152  0.10514764     0.38400
H1568       H  0.07132250  0.56575051  0.09377065     0.33800
C1569       C  0.22206114  0.68009867  0.06424517    -0.19900
C1570       C  0.20752087  0.68384853  0.03954753     0.36300
C1571       C  0.21289295  0.66655650  0.01701767    -0.25900
C1572       C  0.23258362  0.64568703  0.01881804     0.02700
C1573       C  0.24834845  0.64313444  0.04297613     0.27600
C1574       C  0.24294507  0.66043955  0.06546482    -0.25000
N1575       N  0.18630263  0.70418294  0.03807495    -0.82400
H1576       H  0.20090271  0.66853309  0.99841285     0.13400
C1577       C  0.23453716  0.62472028  0.99669359     0.02700
N1578       N  0.26876956  0.62202847  0.04505701    -0.81000
H1579       H  0.25375934  0.65736142  0.08463480     0.18200
C1580       C  0.25855183  0.62258125  0.98107988    -0.25800
C1581       C  0.26223666  0.60088746  0.96230821     0.36200
C1582       C  0.24157904  0.58059571  0.95947927    -0.19800
C1583       C  0.21696935  0.58371536  0.97405931    -0.25100
C1584       C  0.21331084  0.60542641  0.99274931     0.27600
H1585       H  0.27467210  0.63762143  0.98397866     0.13300
N1586       N  0.28697617  0.59929429  0.94638339    -0.82400
H1587       H  0.20098848  0.56842310  0.97187212     0.18200
N1588       N  0.18849411  0.60740605  0.00851074    -0.81000
H1589       H  0.30008562  0.61561454  0.95111455     0.33800
H1590       H  0.28153682  0.60158315  0.92576436     0.38300
H1591       H  0.17486749  0.59172720  0.00312594     0.33800
H1592       H  0.19358452  0.60432274  0.02911125     0.30500
H1593       H  0.27857409  0.62292576  0.06411492     0.33800
H1594       H  0.25870144  0.60310781  0.04419050     0.30500
H1595       H  0.19558993  0.72335838  0.04056022     0.38400
H1596       H  0.17727022  0.70416546  0.01861932     0.33800
C1597       C  0.67126284  0.86776848  0.70352287    -0.19900
C1598       C  0.65288415  0.86639913  0.68125629     0.36300
C1599       C  0.63371739  0.88759312  0.67739628    -0.25900
C1600       C  0.63248209  0.91003620  0.69546578     0.02700
C1601       C  0.65186679  0.91214181  0.71683375     0.27600
C1602       C  0.67102868  0.89094919  0.72067709    -0.25000
N1603       N  0.65246809  0.84256350  0.66390165    -0.82400
H1604       H  0.61880750  0.88599595  0.66098543     0.13400
C1605       C  0.60990185  0.93033094  0.69245330     0.02700
N1606       N  0.65143816  0.93536980  0.73500553    -0.81000
H1607       H  0.68483115  0.89169587  0.73809092     0.18200
C1608       C  0.59081478  0.93378399  0.71377376    -0.25800
C1609       C  0.56804752  0.95132450  0.71081591     0.36200
C1610       C  0.56414386  0.96541180  0.68578947    -0.19800
C1611       C  0.58362469  0.96226078  0.66476920    -0.25100
C1612       C  0.60650967  0.94512856  0.66792952     0.27600
H1613       H  0.59340576  0.92226654  0.73258025     0.13300
N1614       N  0.54843538  0.95388892  0.73265773    -0.82400
H1615       H  0.58096820  0.97320147  0.64563196     0.18200
N1616       N  0.62632543  0.94257838  0.64627323    -0.81000
H1617       H  0.55351651  0.94090399  0.74891896     0.33800
H1618       H  0.54992967  0.97385643  0.74033001     0.38300
H1619       H  0.62080655  0.95469553  0.62949278     0.33800
H1620       H  0.64491826  0.95036240  0.65361791     0.30500
H1621       H  0.66689679  0.93371263  0.74977111     0.33800
H1622       H  0.65596975  0.95276593  0.72335237     0.30500
H1623       H  0.67114127  0.84192461  0.65342157     0.38400
H1624       H  0.63716502  0.84433161  0.64898892     0.33800
C1625       C  0.56802943  0.76837356  0.87024757    -0.19900
C1626       C  0.57069420  0.79314338  0.85549553     0.36300
C1627       C  0.59326859  0.79682002  0.83799501    -0.25900
C1628       C  0.61293570  0.77619717  0.83466571     0.02700
C1629       C  0.61090179  0.75186152  0.84994256     0.27600
C1630       C  0.58844362  0.74817467  0.86763499    -0.25000
N1631       N  0.54999181  0.81399280  0.85739004    -0.82400
H1632       H  0.59496703  0.81539167  0.82594022     0.13400
C1633       C  0.63353583  0.77931825  0.81269207     0.02700
N1634       N  0.63146200  0.73096153  0.84718562    -0.81000
H1635       H  0.58664358  0.72924982  0.87910048     0.18200
C1636       C  0.65897284  0.79142123  0.81841899    -0.25800
C1637       C  0.67721876  0.79814038  0.79719796     0.36200
C1638       C  0.66972103  0.79240775  0.76969131    -0.19800
C1639       C  0.64482496  0.77904505  0.76423708    -0.25100
C1640       C  0.62661244  0.77247945  0.78549296     0.27600
H1641       H  0.66414835  0.79677346  0.83937883     0.13300
N1642       N  0.70223442  0.81213568  0.80422916    -0.82400
H1643       H  0.63892100  0.77517505  0.74313961     0.18200
N1644       N  0.60042498  0.76027556  0.77951760    -0.81000
H1645       H  0.71383963  0.79885307  0.81636756     0.33800
H1646       H  0.71408929  0.81637597  0.78694756     0.38300
H1647       H  0.59818120  0.75713853  0.75841588     0.33800
H1648       H  0.60002476  0.74089403  0.78861401     0.30500
H1649       H  0.62708615  0.71441587  0.86007089     0.33800
H1650       H  0.63058658  0.72344852  0.82711164     0.30500
H1651       H  0.53205529  0.80606235  0.84868006     0.38400
H1652       H  0.55539443  0.83108585  0.84565219     0.33800
C1653       C  0.95171665  0.58054790  0.68393042    -0.19900
C1654       C  0.94024157  0.58828443  0.70943917     0.36300
C1655       C  0.92129306  0.61004079  0.71040395    -0.25900
C1656       C  0.91431999  0.62474071  0.68669676     0.02700
C1657       C  0.92729445  0.61849364  0.66172549     0.27600
C1658       C  0.94567379  0.59637804  0.66055552    -0.25000
N1659       N  0.94724956  0.57377901  0.73409284    -0.82400
H1660       H  0.91150843  0.61531395  0.72964997     0.13400
C1661       C  0.89199024  0.64525954  0.68818335     0.02700
N1662       N  0.92183536  0.63465869  0.63770441    -0.81000
H1663       H  0.95495207  0.59120076  0.64104779     0.18200
C1664       C  0.89770659  0.67216192  0.69672695    -0.25800
C1665       C  0.87631626  0.69074409  0.70244777     0.36200
C1666       C  0.84887176  0.68224003  0.69903315    -0.19800
C1667       C  0.84338495  0.65582612  0.68889375    -0.25100
C1668       C  0.86463117  0.63719945  0.68356566     0.27600
H1669       H  0.91880751  0.67817585  0.70024047     0.13300
N1670       N  0.88228673  0.71762287  0.71299173    -0.82400
H1671       H  0.82227362  0.64920701  0.68671599     0.18200
N1672       N  0.85847720  0.60959644  0.67513006    -0.81000
H1673       H  0.90346857  0.72069172  0.71418376     0.33800
H1674       H  0.87486389  0.71857047  0.73308548     0.38300
H1675       H  0.83729493  0.60669572  0.67359592     0.33800
H1676       H  0.86636764  0.60680639  0.65541039     0.30500
H1677       H  0.93354654  0.62774624  0.62113061     0.33800
H1678       H  0.90133110  0.63176586  0.63224393     0.30500
H1679       H  0.96793338  0.57770158  0.73816057     0.38400
H1680       H  0.93631897  0.58156042  0.75081695     0.33800
C1681       C  0.77667363  0.68298288  0.76876543    -0.19900
C1682       C  0.79078919  0.67991134  0.79379546     0.36300
C1683       C  0.78270203  0.65930425  0.81215432    -0.25900
C1684       C  0.76092105  0.64158683  0.80590359     0.02700
C1685       C  0.74564691  0.64572806  0.78153070     0.27600
C1686       C  0.75364556  0.66657792  0.76334223    -0.25000
N1687       N  0.81430165  0.69673358  0.79962950    -0.82400
H1688       H  0.79429966  0.65610532  0.83084617     0.13400
C1689       C  0.75695939  0.61737732  0.82378675     0.02700
N1690       N  0.72284430  0.62857839  0.77398400    -0.81000
H1691       H  0.74304350  0.66863805  0.74391171     0.18200
C1692       C  0.73678316  0.61773937  0.84421862    -0.25800
C1693       C  0.73438294  0.59598841  0.86304166     0.36200
C1694       C  0.75269853  0.57359889  0.86133520    -0.19800
C1695       C  0.77268888  0.57327425  0.84066781    -0.25100
C1696       C  0.77479488  0.59478586  0.82168681     0.27600
H1697       H  0.72328041  0.63528200  0.84576892     0.13300
N1698       N  0.71391582  0.59690451  0.88421936    -0.82400
H1699       H  0.78649913  0.55597085  0.83909188     0.18200
N1700       N  0.79516713  0.59400284  0.80040497    -0.81000
H1701       H  0.70206843  0.61465569  0.88247611     0.33800
H1702       H  0.72410981  0.59821269  0.90305342     0.38300
H1703       H  0.80681857  0.57609105  0.80179503     0.33800
H1704       H  0.78487139  0.59311817  0.78160422     0.30500
H1705       H  0.72828534  0.61792565  0.75619169     0.33800
H1706       H  0.71867931  0.61386999  0.78894225     0.30500
H1707       H  0.80751719  0.71698877  0.80121502     0.38400
H1708       H  0.82272549  0.69160972  0.81866580     0.33800
C1709       C  0.77396208  0.85903138  0.58424986    -0.19900
C1710       C  0.77675091  0.88692663  0.59105512     0.36300
C1711       C  0.77061831  0.90710766  0.57140434    -0.25900
C1712       C  0.76164092  0.89972940  0.54504110     0.02700
C1713       C  0.75678225  0.87186871  0.53891042     0.27600
C1714       C  0.76313688  0.85175544  0.55856359    -0.25000
N1715       N  0.78742551  0.89469969  0.61730646    -0.82400
H1716       H  0.77425764  0.92849264  0.57624332     0.13400
C1717       C  0.76070404  0.92072394  0.52301708     0.02700
N1718       N  0.74699392  0.86406788  0.51219108    -0.81000
H1719       H  0.76124832  0.83024756  0.55327028     0.18200
C1720       C  0.78428070  0.92520964  0.50719366    -0.25800
C1721       C  0.78416730  0.94355505  0.48489407     0.36200
C1722       C  0.75981612  0.95781330  0.47825185    -0.19800
C1723       C  0.73641326  0.95372599  0.49471327    -0.25100
C1724       C  0.73665417  0.93542309  0.51706228     0.27600
H1725       H  0.80274932  0.91386893  0.51199038     0.13300
N1726       N  0.80853827  0.94722070  0.46875422    -0.82400
H1727       H  0.71774119  0.96476083  0.49004841     0.18200
N1728       N  0.71269373  0.93187715  0.53383959    -0.81000
H1729       H  0.82477657  0.93589732  0.47692101     0.33800
H1730       H  0.80465898  0.93907892  0.44927820     0.38300
H1731       H  0.69683744  0.94453877  0.52702319     0.33800
H1732       H  0.70584376  0.91171237  0.53138953     0.30500
H1733       H  0.74511402  0.84275717  0.51077235     0.33800
H1734       H  0.72724575  0.87200120  0.50993097     0.30500
H1735       H  0.77302147  0.90736748  0.62684104     0.38400
H1736       H  0.80526669  0.90616851  0.61416594     0.33800
C1737       C  0.85397017  0.79864553  0.59267195    -0.19900
C1738       C  0.85476485  0.77493647  0.57618276     0.36300
C1739       C  0.87702159  0.77089420  0.55832217    -0.25900
C1740       C  0.89848721  0.79006379  0.55674095     0.02700
C1741       C  0.89872036  0.81264509  0.57484219     0.27600
C1742       C  0.87630280  0.81684020  0.59249983    -0.25000
N1743       N  0.83203276  0.75616490  0.57619784    -0.82400
H1744       H  0.87688919  0.75351104  0.54445659     0.13400
C1745       C  0.91892590  0.78740845  0.53424549     0.02700
N1746       N  0.92126890  0.83163442  0.57453595    -0.81000
H1747       H  0.87550053  0.83513426  0.60511650     0.18200
C1748       C  0.92062793  0.80801672  0.51419476    -0.25800
C1749       C  0.93673304  0.80456114  0.49043770     0.36200
C1750       C  0.95180235  0.78010628  0.48691028    -0.19800
C1751       C  0.95073316  0.75996045  0.50752555    -0.25100
C1752       C  0.93455865  0.76338649  0.53111537     0.27600
H1753       H  0.90831873  0.82634176  0.51650155     0.13300
N1754       N  0.93695449  0.82531517  0.46955181    -0.82400
H1755       H  0.96245620  0.74126445  0.50515832     0.18200
N1756       N  0.93365267  0.74243512  0.55179835    -0.81000
H1757       H  0.92508886  0.84211799  0.47553342     0.33800
H1758       H  0.92749439  0.81705171  0.45214149     0.38300
H1759       H  0.94616409  0.72592689  0.54634736     0.33800
H1760       H  0.94188182  0.75075702  0.56979241     0.30500
H1761       H  0.91821568  0.84719487  0.58898611     0.33800
H1762       H  0.93877120  0.82095327  0.58071298     0.30500
H1763       H  0.83109282  0.74724811  0.59565836     0.38400
H1764       H  0.83543721  0.74018151  0.56230254     0.33800
loop_ 
_geom_bond_atom_site_label_1 
_geom_bond_atom_site_label_2 
_geom_bond_distance 
_geom_bond_site_symmetry_2 
_ccdc_geom_bond_type 
C1            C2   1.396       .  A
C1            C6   1.406       .  A
C1         C1737   1.479       .  S
C2            C3   1.396       .  A
C2            H7   1.085       .  S
C3            C4   1.405       .  A
C3         C1709   1.481       .  S
C4            C5   1.417       .  A
C4            H8   1.083       .  S
C5            C6   1.415       .  A
C5           C32   1.493       .  S
C6            H9   1.083       .  S
C10          C11   1.419       .  A
C10          C15   1.417       .  A
C10          C30   1.498       .  S
C11          C12   1.409       .  A
C11          H16   1.083       .  S
C12          C13   1.395       .  A
C12        C1666   1.484       .  S
C13          C14   1.394       .  A
C13          H17   1.086       .  S
C14          C15   1.405       .  A
C14        C1681   1.479       .  S
C15          H18   1.083       .  S
C19          C20   1.414       .  A
C19          C24   1.420       .  A
C19          C28   1.496       .  S
C20          C21   1.402       .  A
C20          H25   1.083       .  S
C21          C22   1.392       .  A
C21        C1638   1.475       .  S
C22          C23   1.394       .  A
C22          H26   1.086       .  S
C23          C24   1.410       .  A
C23        C1597   1.482       .  S
C24          H27   1.083       .  S
C28          N29   1.363       .  A
C28          N33   1.360       .  A
N29          C30   1.363       .  A
C30          N31   1.363       .  A
N31          C32   1.364       .  A
C32          N33   1.363       .  A
C34          C35   1.410       .  A
C34          C39   1.398       .  A
C34        C1554   1.486       .  S
C35          C36   1.417       .  A
C35          H40   1.083       .  S
C36          C37   1.418       .  A
C36          C45   1.497       .  S
C37          C38   1.403       .  A
C37          H41   1.083       .  S
C38          C39   1.394       .  A
C38        C1569   1.481       .  S
C39          H42   1.085       .  S
C43         C190   1.499       .  S
C43          N44   1.366       .  A
C43          N48   1.363       .  A
N44          C45   1.367       .  A
C45          N46   1.362       .  A
N46          C47   1.359       .  A
C47         C212   1.495       .  S
C47          N48   1.361       .  A
C49          C50   1.414       .  A
C49          C54   1.418       .  A
C49          C62   1.493       .  S
C50          C51   1.404       .  A
C50          H55   1.083       .  S
C51          C52   1.392       .  A
C51        C1498   1.473       .  S
C52          C53   1.392       .  A
C52          H56   1.086       .  S
C53          C54   1.405       .  A
C53        C1526   1.476       .  S
C54          H57   1.083       .  S
C58         C226   1.489       .  S
C58          N59   1.359       .  A
C58          N63   1.360       .  A
N59          C60   1.361       .  A
C60         C217   1.491       .  S
C60          N61   1.364       .  A
N61          C62   1.363       .  A
C62          N63   1.359       .  A
C64          C65   1.413       .  A
C64          C69   1.414       .  A
C64          C75   1.490       .  S
C65          C66   1.406       .  A
C65          H70   1.083       .  S
C66          C67   1.398       .  A
C66        C1429   1.478       .  S
C67          C68   1.397       .  A
C67          H71   1.085       .  S
C68          C69   1.402       .  A
C68        C1470   1.479       .  S
C69          H72   1.083       .  S
C73         C235   1.487       .  S
C73          N74   1.357       .  A
C73          N78   1.357       .  A
N74          C75   1.361       .  A
C75          N76   1.365       .  A
N76          C77   1.364       .  A
C77         C199   1.491       .  S
C77          N78   1.360       .  A
In79         O81   2.210       .  S
In79         O82   2.243       .  S
In79         O90   2.185       .  S
In79         O84   2.223       .  S
In79         O86   2.218       .  S
In79         O87   2.236       .  S
In79         O88   2.189       .  S
In79         O91   2.216       .  S
C80        C1386   1.483       .  S
C80          O86   1.276       .  A
C80          O88   1.271       .  A
O81          C89   1.270       .  A
O82          C89   1.277       .  A
C83        C1358   1.483       .  S
C83          O90   1.271       .  A
C83          O84   1.276       .  A
C85        C1457   1.490       .  S
C85          O87   1.277       .  A
C85          O91   1.270       .  A
C89        C1414   1.489       .  S
In92         O94   2.214       .  S
In92         O95   2.242       .  S
In92        O103   2.207       .  S
In92         O97   2.252       .  S
In92         O99   2.244       .  S
In92        O100   2.245       .  S
In92        O101   2.220       .  S
In92        O104   2.204       .  S
C93        C1582   1.491       .  S
C93          O99   1.275       .  A
C93         O101   1.268       .  A
O94         C102   1.268       .  A
O95         C102   1.275       .  A
C96        C1317   1.486       .  S
C96         O103   1.267       .  A
C96          O97   1.276       .  A
C98        C1261   1.484       .  S
C98         O100   1.275       .  A
C98         O104   1.268       .  A
C102       C1302   1.488       .  S
C105        C106   1.402       .  A
C105        C110   1.392       .  A
C105       C1373   1.473       .  S
C106        C107   1.414       .  A
C106        H111   1.083       .  S
C107        C108   1.417       .  A
C107        C184   1.492       .  S
C108        C109   1.408       .  A
C108        H112   1.083       .  S
C109        C110   1.395       .  A
C109       C1289   1.481       .  S
C110        H113   1.086       .  S
In114       O116   2.204   1_545  S
In114       O117   2.229   1_545  S
In114       O125   2.212       .  S
In114       O119   2.237       .  S
In114       O121   2.234   1_545  S
In114       O122   2.228       .  S
In114       O123   2.205   1_545  S
In114       O126   2.203       .  S
C115       C1177   1.491       .  S
C115        O121   1.277       .  A
C115        O123   1.271       .  A
O116        C124   1.271       .  A
O117        C124   1.277       .  A
C118       C1205   1.489       .  S
C118        O125   1.271       .  A
C118        O119   1.277       .  A
C120       C1442   1.490       .  S
C120        O122   1.276       .  A
C120        O126   1.272       .  A
C124       C1246   1.490       .  S
In127       O129   2.209       .  S
In127       O130   2.240       .  S
In127       O138   2.199       .  S
In127       O132   2.237       .  S
In127       O134   2.241   1_545  S
In127       O135   2.244   1_545  S
In127       O136   2.205   1_545  S
In127       O139   2.201   1_545  S
C128       C1162   1.488       .  S
C128        O134   1.275       .  A
C128        O136   1.269       .  A
O129        C137   1.269       .  A
O130        C137   1.275       .  A
C131       C1513   1.474       .  S
C131        O138   1.268       .  A
C131        O132   1.275       .  A
C133       C1106   1.490       .  S
C133        O135   1.275       .  A
C133        O139   1.269       .  A
C137       C1121   1.489       .  S
C140        C141   1.421       .  A
C140        C145   1.415       .  A
C140        C188   1.498       .  S
C141        C142   1.411       .  A
C141        H146   1.083       .  S
C142        C143   1.396       .  A
C142       C1218   1.486       .  S
C143        C144   1.392       .  A
C143        H147   1.085       .  S
C144        C145   1.403       .  A
C144       C1134   1.476       .  S
C145        H148   1.083       .  S
In149       O151   2.196       .  S
In149       O152   2.238       .  S
In149       O160   2.208       .  S
In149       O154   2.232       .  S
In149       O156   2.231   1_455  S
In149       O157   2.223   1_455  S
In149       O158   2.205   1_455  S
In149       O161   2.216   1_455  S
C150       C1065   1.487       .  S
C150        O156   1.275       .  A
C150        O158   1.270       .  A
O151        C159   1.269       .  A
O152        C159   1.276       .  A
C153       C1541   1.490       .  S
C153        O160   1.270       .  A
C153        O154   1.275       .  A
C155       C1022   1.486       .  S
C155        O157   1.275       .  A
C155        O161   1.270       .  A
C159       C1037   1.483       .  S
In162       O164   2.215   1_455  S
In162       O165   2.215   1_455  S
In162       O173   2.207       .  S
In162       O167   2.214       .  S
In162       O169   2.216   1_455  S
In162       O170   2.223       .  S
In162       O171   2.196   1_455  S
In162       O174   2.210       .  S
C163        C994   1.486       .  S
C163        O169   1.278       .  A
C163        O171   1.273       .  A
O164        C172   1.274       .  A
O165        C172   1.277       .  A
C166       C1485   1.489       .  S
C166        O173   1.273       .  A
C166        O167   1.277       .  A
C168        C966   1.484       .  S
C168        O170   1.277       .  A
C168        O174   1.273       .  A
C172        C938   1.489       .  S
C175        C176   1.390       .  A
C175        C180   1.403       .  A
C175        C953   1.477       .  S
C176        C177   1.394       .  A
C176        H181   1.086       .  S
C177        C178   1.411       .  A
C177       C1050   1.484       .  S
C178        C179   1.420       .  A
C178        H182   1.083       .  S
C179        C180   1.416       .  A
C179        C186   1.497       .  S
C180        H183   1.083       .  S
C184        N185   1.364       .  A
C184        N189   1.364       .  A
N185        C186   1.362       .  A
C186        N187   1.363       .  A
N187        C188   1.362       .  A
C188        N189   1.360       .  A
C190        C191   1.419       .  A
C190        C195   1.419       .  A
C191        C192   1.411       .  A
C191        H196   1.083       .  S
C192        C193   1.393       .  A
C192        C910   1.484       .  S
C193        C194   1.395       .  A
C193        H197   1.086       .  S
C194        C195   1.405       .  A
C194       C1149   1.481       .  S
C195        H198   1.083       .  S
C199        C200   1.416       .  A
C199        C204   1.415       .  A
C200        C201   1.409       .  A
C200        H205   1.083       .  S
C201        C202   1.396       .  A
C201        C882   1.483       .  S
C202        C203   1.393       .  A
C202        H206   1.085       .  S
C203        C204   1.400       .  A
C203        C981   1.473       .  S
C204        H207   1.083       .  S
C208        C209   1.395       .  A
C208        C213   1.409       .  A
C208        C854   1.486       .  S
C209        C210   1.394       .  A
C209        H214   1.086       .  S
C210        C211   1.404       .  A
C210       C1233   1.477       .  S
C211        C212   1.416       .  A
C211        H215   1.083       .  S
C212        C213   1.419       .  A
C213        H216   1.083       .  S
C217        C218   1.418       .  A
C217        C222   1.415       .  A
C218        C219   1.405       .  A
C218        H223   1.083       .  S
C219        C220   1.394       .  A
C219       C1330   1.482       .  S
C220        C221   1.393       .  A
C220        H224   1.085       .  S
C221        C222   1.404       .  A
C221        C826   1.476       .  S
C222        H225   1.083       .  S
C226        C227   1.412       .  A
C226        C231   1.416       .  A
C227        C228   1.399       .  A
C227        H232   1.083       .  S
C228        C229   1.395       .  A
C228        C785   1.474       .  S
C229        C230   1.397       .  A
C229        H233   1.085       .  S
C230        C231   1.408       .  A
C230       C1401   1.482       .  S
C231        H234   1.083       .  S
C235        C236   1.412       .  A
C235        C240   1.414       .  A
C236        C237   1.402       .  A
C236        H241   1.083       .  S
C237        C238   1.396       .  A
C237       C1078   1.477       .  S
C238        C239   1.396       .  A
C238        H242   1.085       .  S
C239        C240   1.403       .  A
C239        C757   1.476       .  S
C240        H243   1.083       .  S
C244        C245   1.390       .  A
C244        C249   1.402       .  A
C244       C1345   1.471       .  S
C245        C246   1.392       .  A
C245        H250   1.086       .  S
C246        C247   1.405       .  A
C246        C729   1.477       .  S
C247        C248   1.418       .  A
C247        H251   1.083       .  S
C248        C249   1.415       .  A
C248        C417   1.491       .  S
C249        H252   1.083       .  S
In253       O255   2.205       .  S
In253       O256   2.206       .  S
In253       O264   2.210       .  S
In253       O258   2.211       .  S
In253       O260   2.218       .  S
In253       O261   2.215       .  S
In253       O262   2.204       .  S
In253       O265   2.189       .  S
C254        C770   1.487       .  S
C254        O260   1.277       .  A
C254        O262   1.273       .  A
O255        C263   1.273       .  A
O256        C263   1.277       .  A
C257       C1694   1.481       .  S
C257        O264   1.274       .  A
C257        O258   1.277       .  A
C259        C742   1.484       .  S
C259        O261   1.277       .  A
C259        O265   1.274       .  A
C263        C714   1.486       .  S
C266        C267   1.403       .  A
C266        C271   1.396       .  A
C266        C673   1.477       .  S
C267        C268   1.416       .  A
C267        H272   1.083       .  S
C268        C269   1.414       .  A
C268        C419   1.492       .  S
C269        C270   1.405       .  A
C269        H273   1.083       .  S
C270        C271   1.396       .  A
C270        C925   1.479       .  S
C271        H274   1.085       .  S
In275       O277   2.203   1_655  S
In275       O278   2.233   1_655  S
In275       O286   2.197   1_655  S
In275       O280   2.234   1_655  S
In275       O282   2.234       .  S
In275       O283   2.241       .  S
In275       O284   2.202       .  S
In275       O287   2.199       .  S
C276        C686   1.489       .  S
C276        O282   1.276       .  A
C276        O284   1.271       .  A
O277        C285   1.270       .  A
O278        C285   1.276       .  A
C279        C645   1.486       .  S
C279        O286   1.269       .  A
C279        O280   1.277       .  A
C281       C1653   1.490       .  S
C281        O283   1.276       .  A
C281        O287   1.270       .  A
C285        C813   1.482       .  S
C288        C289   1.416       .  A
C288        C293   1.416       .  A
C288        C407   1.493       .  S
C289        C290   1.408       .  A
C289        H294   1.083       .  S
C290        C291   1.395       .  A
C290        C617   1.481       .  S
C291        C292   1.392       .  A
C291        H295   1.086       .  S
C292        C293   1.402       .  A
C292        C658   1.475       .  S
C293        H296   1.083       .  S
C297        C298   1.416       .  A
C297        C302   1.418       .  A
C297        C413   1.498       .  S
C298        C299   1.407       .  A
C298        H303   1.083       .  S
C299        C300   1.396       .  A
C299       C1009   1.484       .  S
C300        C301   1.395       .  A
C300        H304   1.085       .  S
C301        C302   1.408       .  A
C301        C589   1.481       .  S
C302        H305   1.083       .  S
In306       O308   2.207   1_655  S
In306       O309   2.256   1_655  S
In306       O317   2.213       .  S
In306       O311   2.242       .  S
In306       O313   2.237   1_655  S
In306       O314   2.251       .  S
In306       O315   2.210   1_655  S
In306       O318   2.204       .  S
C307        C630   1.482       .  S
C307        O313   1.274       .  A
C307        O315   1.267       .  A
O308        C316   1.267       .  A
O309        C316   1.275       .  A
C310        C602   1.487       .  S
C310        O317   1.268       .  A
C310        O311   1.273       .  A
C312       C1750   1.488       .  S
C312        O314   1.275       .  A
C312        O318   1.267       .  A
C316        C897   1.488       .  S
C319        C320   1.403       .  A
C319        C324   1.396       .  A
C319       C1190   1.481       .  S
C320        C321   1.417       .  A
C320        H325   1.083       .  S
C321        C322   1.413       .  A
C321        C409   1.488       .  S
C322        C323   1.402       .  A
C322        H326   1.083       .  S
C323        C324   1.395       .  A
C323        C561   1.476       .  S
C324        H327   1.085       .  S
In328       O330   2.203   1_545  S
In328       O331   2.243   1_545  S
In328       O339   2.219   1_545  S
In328       O333   2.240   1_545  S
In328       O335   2.239       .  S
In328       O336   2.242       .  S
In328       O337   2.217       .  S
In328       O340   2.209       .  S
C329        C869   1.487       .  S
C329        O335   1.276       .  A
C329        O337   1.271       .  A
O330        C338   1.270       .  A
O331        C338   1.278       .  A
C332       C1722   1.494       .  S
C332        O339   1.271       .  A
C332        O333   1.276       .  A
C334        C533   1.491       .  S
C334        O336   1.277       .  A
C334        O340   1.270       .  A
C338        C574   1.493       .  S
C341        C342   1.400       .  A
C341        C346   1.398       .  A
C341        C701   1.476       .  S
C342        C343   1.410       .  A
C342        H347   1.083       .  S
C343        C344   1.420       .  A
C343        C411   1.491       .  S
C344        C345   1.409       .  A
C344        H348   1.083       .  S
C345        C346   1.395       .  A
C345        C518   1.487       .  S
C346        H349   1.085       .  S
C350        C351   1.414       .  A
C350        C355   1.420       .  A
C350        C403   1.494       .  S
C351        C352   1.401       .  A
C351        H356   1.083       .  S
C352        C353   1.392       .  A
C352        C490   1.472       .  S
C353        C354   1.393       .  A
C353        H357   1.086       .  S
C354        C355   1.410       .  A
C354       C1274   1.483       .  S
C355        H358   1.083       .  S
In359       O361   2.218       .  S
In359       O362   2.234       .  S
In359       O370   2.208       .  S
In359       O364   2.242       .  S
In359       O366   2.247       .  S
In359       O367   2.220       .  S
In359       O368   2.198       .  S
In359       O371   2.208       .  S
C360        C477   1.490       .  S
C360        O366   1.277       .  A
C360        O368   1.267       .  A
O361        C369   1.271       .  A
O362        C369   1.274       .  A
C363        C505   1.488       .  S
C363        O370   1.269       .  A
C363        O364   1.277       .  A
C365       C1625   1.483       .  S
C365        O367   1.275       .  A
C365        O371   1.271       .  A
C369        C841   1.493       .  S
C372        C373   1.409       .  A
C372        C377   1.396       .  A
C372        C546   1.487       .  S
C373        C374   1.418       .  A
C373        H378   1.083       .  S
C374        C375   1.416       .  A
C374        C415   1.495       .  S
C375        C376   1.404       .  A
C375        H379   1.082       .  S
C376        C377   1.398       .  A
C376        C462   1.486       .  S
C377        H380   1.085       .  S
C381        C382   1.393       .  A
C381        C386   1.407       .  A
C381       C1093   1.478       .  S
C382        C383   1.394       .  A
C382        H387   1.086       .  S
C383        C384   1.406       .  A
C383        C421   1.481       .  S
C384        C385   1.419       .  A
C384        H388   1.083       .  S
C385        C386   1.417       .  A
C385        C405   1.497       .  S
C386        H389   1.083       .  S
In390       O392   2.210   1_545  S
In390       O393   2.236   1_545  S
In390       O401   2.210       .  S
In390       O395   2.230       .  S
In390       O397   2.235   1_545  S
In390       O398   2.239       .  S
In390       O399   2.198   1_545  S
In390       O402   2.210       .  S
C391       C1610   1.487       .  S
C391        O397   1.277       .  A
C391        O399   1.271       .  A
O392        C400   1.269       .  A
O393        C400   1.277       .  A
C394        C798   1.491       .  S
C394        O401   1.270       .  A
C394        O395   1.276       .  A
C396        C449   1.491       .  S
C396        O398   1.276       .  A
C396        O402   1.271       .  A
C400        C434   1.489       .  S
C403        N404   1.362       .  A
C403        N408   1.359       .  A
N404        C405   1.362       .  A
C405        N406   1.364       .  A
N406        C407   1.365       .  A
C407        N408   1.362       .  A
C409        N410   1.359       .  A
C409        N414   1.363       .  A
N410        C411   1.357       .  A
C411        N412   1.364       .  A
N412        C413   1.364       .  A
C413        N414   1.363       .  A
C415        N416   1.362       .  A
C415        N420   1.363       .  A
N416        C417   1.361       .  A
C417        N418   1.359       .  A
N418        C419   1.361       .  A
C419        N420   1.364       .  A
C421        C422   1.412       .  A
C421        C426   1.404       .  A
C422        C423   1.406       .  A
C422        N427   1.439       .  S
C423        C424   1.401       .  A
C423        H428   1.084       .  S
C424        C425   1.410       .  A
C424        C429   1.484       .  S
C425        C426   1.410       .  A
C425        N430   1.437       .  S
C426        H431   1.084       .  S
N427        H447   1.045       .  S
N427        H448   1.046       .  S
C429        C432   1.400       .  A
C429        C436   1.410       .  A
N430        H445   1.046       .  S
N430        H446   1.045       .  S
C432        C433   1.410       .  A
C432        H437   1.084       .  S
C433        C434   1.420       .  A
C433        N438   1.438       .  S
C434        C435   1.404       .  A
C435        C436   1.407       .  A
C435        H439   1.083       .  S
C436        N440   1.438       .  S
N438        H441   1.046       .  S
N438        H442   1.045       .  S
N440        H443   1.046       .  S
N440        H444   1.045       .  S
C449        C450   1.415       .  A
C449        C454   1.409       .  A
C450        C451   1.408       .  A
C450        N455   1.437       .  S
C451        C452   1.405       .  A
C451        H456   1.084       .  S
C452        C453   1.407       .  A
C452        C457   1.488       .  S
C453        C454   1.408       .  A
C453        N458   1.438       .  S
C454        H459   1.083       .  S
N455        H475   1.046       .  S
N455        H476   1.046       .  S
C457        C460   1.406       .  A
C457        C464   1.409       .  A
N458        H473   1.046       .  S
N458        H474   1.046       .  S
C460        C461   1.412       .  A
C460        H465   1.083       .  S
C461        C462   1.412       .  A
C461        N466   1.437       .  S
C462        C463   1.404       .  A
C463        C464   1.402       .  A
C463        H467   1.084       .  S
C464        N468   1.438       .  S
N466        H469   1.046       .  S
N466        H470   1.045       .  S
N468        H471   1.046       .  S
N468        H472   1.045       .  S
C477        C478   1.421       .  A
C477        C482   1.406       .  A
C478        C479   1.406       .  A
C478        N483   1.438       .  S
C479        C480   1.397       .  A
C479        H484   1.084       .  S
C480        C481   1.409       .  A
C480        C485   1.481       .  S
C481        C482   1.408       .  A
C481        N486   1.438       .  S
C482        H487   1.083       .  S
N483        H503   1.045       .  S
N483        H504   1.046       .  S
C485        C488   1.403       .  A
C485        C492   1.418       .  A
N486        H501   1.046       .  S
N486        H502   1.046       .  S
C488        C489   1.406       .  A
C488        H493   1.084       .  S
C489        C490   1.409       .  A
C489        N494   1.438       .  S
C490        C491   1.400       .  A
C491        C492   1.400       .  A
C491        H495   1.084       .  S
C492        N496   1.439       .  S
N494        H497   1.046       .  S
N494        H498   1.045       .  S
N496        H499   1.046       .  S
N496        H500   1.042       .  S
C505        C506   1.412       .  A
C505        C510   1.408   1_556  A
C506        C507   1.409   1_556  A
C506        N511   1.438       .  S
C507        C508   1.407       .  A
C507        H512   1.084       .  S
C508        C509   1.411       .  A
C508        C513   1.495       .  S
C509        C510   1.409       .  A
C509        N514   1.437       .  S
C510        H515   1.084       .  S
N511        H531   1.046       .  S
N511        H532   1.046       .  S
C513        C516   1.407       .  A
C513        C520   1.412       .  A
N514        H529   1.046       .  S
N514        H530   1.046       .  S
C516        C517   1.412       .  A
C516        H521   1.083       .  S
C517        C518   1.411       .  A
C517        N522   1.437       .  S
C518        C519   1.404       .  A
C519        C520   1.407       .  A
C519        H523   1.084       .  S
C520        N524   1.438       .  S
N522        H525   1.046       .  S
N522        H526   1.046       .  S
N524        H527   1.046       .  S
N524        H528   1.046       .  S
C533        C534   1.413       .  A
C533        C538   1.408       .  A
C534        C535   1.410       .  A
C534        N539   1.437       .  S
C535        C536   1.407       .  A
C535        H540   1.083       .  S
C536        C537   1.411       .  A
C536        C541   1.497       .  S
C537        C538   1.409       .  A
C537        N542   1.438       .  S
C538        H543   1.084       .  S
N539        H559   1.045       .  S
N539        H560   1.046       .  S
C541        C544   1.408       .  A
C541        C548   1.412       .  A
N542        H557   1.046       .  S
N542        H558   1.046       .  S
C544        C545   1.411       .  A
C544        H549   1.083       .  S
C545        C546   1.410       .  A
C545        N550   1.438       .  S
C546        C547   1.405       .  A
C547        C548   1.407       .  A
C547        H551   1.084       .  S
C548        N552   1.438       .  S
N550        H553   1.046       .  S
N550        H554   1.046       .  S
N552        H555   1.046       .  S
N552        H556   1.046       .  S
C561        C562   1.408       .  A
C561        C566   1.402       .  A
C562        C563   1.409       .  A
C562        N567   1.437       .  S
C563        C564   1.405       .  A
C563        H568   1.083       .  S
C564        C565   1.410       .  A
C564        C569   1.484       .  S
C565        C566   1.403       .  A
C565        N570   1.438       .  S
C566        H571   1.084       .  S
N567        H587   1.045       .  S
N567        H588   1.046       .  S
C569        C572   1.399       .  A
C569        C576   1.410       .  A
N570        H585   1.046       .  S
N570        H586   1.046       .  S
C572        C573   1.407       .  A
C572        H577   1.084       .  S
C573        C574   1.420       .  A
C573        N578   1.438       .  S
C574        C575   1.407       .  A
C575        C576   1.409       .  A
C575        H579   1.083       .  S
C576        N580   1.438       .  S
N578        H581   1.046       .  S
N578        H582   1.046       .  S
N580        H583   1.046       .  S
N580        H584   1.046       .  S
C589        C590   1.412       .  A
C589        C594   1.402       .  A
C590        C591   1.412       .  A
C590        N595   1.437       .  S
C591        C592   1.404       .  A
C591        H596   1.084       .  S
C592        C593   1.408       .  A
C592        C597   1.484       .  S
C593        C594   1.404       .  A
C593        N598   1.438       .  S
C594        H599   1.084       .  S
N595        H615   1.045       .  S
N595        H616   1.046       .  S
C597        C600   1.404       .  A
C597        C604   1.406       .  A
N598        H613   1.045       .  S
N598        H614   1.045       .  S
C600        C601   1.410       .  A
C600        H605   1.084       .  S
C601        C602   1.414       .  A
C601        N606   1.438       .  S
C602        C603   1.407       .  A
C603        C604   1.406       .  A
C603        H607   1.083       .  S
C604        N608   1.438       .  S
N606        H609   1.046       .  S
N606        H610   1.046       .  S
N608        H611   1.046       .  S
N608        H612   1.045       .  S
C617        C618   1.417       .  A
C617        C622   1.405       .  A
C618        C619   1.405       .  A
C618        N623   1.438       .  S
C619        C620   1.404       .  A
C619        H624   1.084       .  S
C620        C621   1.408       .  A
C620        C625   1.484       .  S
C621        C622   1.403       .  A
C621        N626   1.438       .  S
C622        H627   1.084       .  S
N623        H643   1.043       .  S
N623        H644   1.046       .  S
C625        C628   1.404       .  A
C625        C632   1.407       .  A
N626        H641   1.046       .  S
N626        H642   1.046       .  S
C628        C629   1.407       .  A
C628        H633   1.084       .  S
C629        C630   1.412       .  A
C629        N634   1.438       .  S
C630        C631   1.407       .  A
C631        C632   1.406       .  A
C631        H635   1.084       .  S
C632        N636   1.437       .  S
N634        H637   1.046       .  S
N634        H638   1.046       .  S
N636        H639   1.046       .  S
N636        H640   1.046       .  S
C645        C646   1.418       .  A
C645        C650   1.405       .  A
C646        C647   1.404       .  A
C646        N651   1.437       .  S
C647        C648   1.399       .  A
C647        H652   1.084       .  S
C648        C649   1.411       .  A
C648        C653   1.483       .  S
C649        C650   1.407       .  A
C649        N654   1.438       .  S
C650        H655   1.083       .  S
N651        H671   1.045       .  S
N651        H672   1.045       .  S
C653        C656   1.403       .  A
C653        C660   1.411       .  A
N654        H669   1.046       .  S
N654        H670   1.046       .  S
C656        C657   1.402       .  A
C656        H661   1.084       .  S
C657        C658   1.415       .  A
C657        N662   1.437       .  S
C658        C659   1.402       .  A
C659        C660   1.404       .  A
C659        H663   1.084       .  S
C660        N664   1.438       .  S
N662        H665   1.045       .  S
N662        H666   1.044       .  S
N664        H667   1.046       .  S
N664        H668   1.046       .  S
C673        C674   1.405       .  A
C673        C678   1.403       .  A
C674        C675   1.401       .  A
C674        N679   1.432       .  S
C675        C676   1.404       .  A
C675        H680   1.084       .  S
C676        C677   1.413       .  A
C676        C681   1.489       .  S
C677        C678   1.410       .  A
C677        N682   1.437       .  S
C678        H683   1.084       .  S
N679        H699   1.046       .  S
N679        H700   1.045       .  S
C681        C684   1.405       .  A
C681        C688   1.409       .  A
N682        H697   1.046       .  S
N682        H698   1.046       .  S
C684        C685   1.409       .  A
C684        H689   1.084       .  S
C685        C686   1.415       .  A
C685        N690   1.437       .  S
C686        C687   1.408       .  A
C687        C688   1.405       .  A
C687        H691   1.083       .  S
C688        N692   1.438       .  S
N690        H693   1.046       .  S
N690        H694   1.046       .  S
N692        H695   1.046       .  S
N692        H696   1.046       .  S
C701        C702   1.408       .  A
C701        C706   1.403       .  A
C702        C703   1.398       .  A
C702        N707   1.433       .  S
C703        C704   1.400       .  A
C703        H708   1.084       .  S
C704        C705   1.410       .  A
C704        C709   1.474       .  S
C705        C706   1.408       .  A
C705        N710   1.437       .  S
C706        H711   1.084       .  S
N707        H727   1.045       .  S
N707        H728   1.046       .  S
C709        C712   1.398       .  A
C709        C716   1.407       .  A
N710        H725   1.046       .  S
N710        H726   1.045       .  S
C712        C713   1.409   1_554  A
C712        H717   1.084       .  S
C713        C714   1.420       .  A
C713        N718   1.438       .  S
C714        C715   1.404       .  A
C715        C716   1.401   1_556  A
C715        H719   1.083       .  S
C716        N720   1.439       .  S
N718        H721   1.046   1_556  S
N718        H722   1.045       .  S
N720        H723   1.045       .  S
N720        H724   1.045       .  S
C729        C730   1.407       .  A
C729        C734   1.404       .  A
C730        C731   1.406       .  A
C730        N735   1.432       .  S
C731        C732   1.403       .  A
C731        H736   1.084       .  S
C732        C733   1.407       .  A
C732        C737   1.476       .  S
C733        C734   1.402       .  A
C733        N738   1.438       .  S
C734        H739   1.084       .  S
N735        H755   1.045       .  S
N735        H756   1.046       .  S
C737        C740   1.402       .  A
C737        C744   1.404       .  A
N738        H753   1.046       .  S
N738        H754   1.045       .  S
C740        C741   1.407       .  A
C740        H745   1.084       .  S
C741        C742   1.415       .  A
C741        N746   1.438       .  S
C742        C743   1.408       .  A
C743        C744   1.403       .  A
C743        H747   1.083       .  S
C744        N748   1.438       .  S
N746        H749   1.046       .  S
N746        H750   1.045       .  S
N748        H751   1.045       .  S
N748        H752   1.046       .  S
C757        C758   1.415       .  A
C757        C762   1.401       .  A
C758        C759   1.404       .  A
C758        N763   1.438       .  S
C759        C760   1.404       .  A
C759        H764   1.084   1_554  S
C760        C761   1.417       .  A
C760        C765   1.482   1_554  S
C761        C762   1.400       .  A
C761        N766   1.439       .  S
C762        H767   1.084       .  S
N763        H783   1.044       .  S
N763        H784   1.046       .  S
C765        C768   1.400       .  A
C765        C772   1.408       .  A
N766        H781   1.045       .  S
N766        H782   1.042       .  S
C768        C769   1.408       .  A
C768        H773   1.084       .  S
C769        C770   1.418       .  A
C769        N774   1.438       .  S
C770        C771   1.405       .  A
C771        C772   1.405       .  A
C771        H775   1.083       .  S
C772        N776   1.438   1_556  S
N774        H777   1.046       .  S
N774        H778   1.045       .  S
N776        H779   1.046   1_554  S
N776        H780   1.046       .  S
C785        C786   1.407       .  A
C785        C790   1.400       .  A
C786        C787   1.406       .  A
C786        N791   1.437       .  S
C787        C788   1.406       .  A
C787        H792   1.084       .  S
C788        C789   1.415       .  A
C788        C793   1.489       .  S
C789        C790   1.405       .  A
C789        N794   1.438       .  S
C790        H795   1.084       .  S
N791        H811   1.046       .  S
N791        H812   1.046       .  S
C793        C796   1.402       .  A
C793        C800   1.413       .  A
N794        H809   1.046       .  S
N794        H810   1.045       .  S
C796        C797   1.408       .  A
C796        H801   1.084       .  S
C797        C798   1.420       .  A
C797        N802   1.438       .  S
C798        C799   1.405       .  A
C799        C800   1.406       .  A
C799        H803   1.083       .  S
C800        N804   1.438       .  S
N802        H805   1.046       .  S
N802        H806   1.045       .  S
N804        H807   1.045       .  S
N804        H808   1.046       .  S
C813        C814   1.412       .  A
C813        C818   1.407       .  A
C814        C815   1.406       .  A
C814        N819   1.437       .  S
C815        C816   1.403       .  A
C815        H820   1.084       .  S
C816        C817   1.406       .  A
C816        C821   1.480       .  S
C817        C818   1.406       .  A
C817        N822   1.437       .  S
C818        H823   1.084       .  S
N819        H839   1.045       .  S
N819        H840   1.045       .  S
C821        C824   1.402       .  A
C821        C828   1.408       .  A
N822        H837   1.045       .  S
N822        H838   1.046       .  S
C824        C825   1.404       .  A
C824        H829   1.084       .  S
C825        C826   1.418       .  A
C825        N830   1.438       .  S
C826        C827   1.403       .  A
C827        C828   1.403       .  A
C827        H831   1.084       .  S
C828        N832   1.438       .  S
N830        H833   1.045       .  S
N830        H834   1.043       .  S
N832        H835   1.046       .  S
N832        H836   1.046       .  S
C841        C842   1.416       .  A
C841        C846   1.409       .  A
C842        C843   1.409       .  A
C842        N847   1.437       .  S
C843        C844   1.402   1_556  A
C843        H848   1.084   1_556  S
C844        C845   1.407   1_554  A
C844        C849   1.484       .  S
C845        C846   1.407       .  A
C845        N850   1.438       .  S
C846        H851   1.083       .  S
N847        H867   1.046       .  S
N847        H868   1.046       .  S
C849        C852   1.403       .  A
C849        C856   1.408       .  A
N850        H865   1.045       .  S
N850        H866   1.045   1_556  S
C852        C853   1.408       .  A
C852        H857   1.084   1_554  S
C853        C854   1.419       .  A
C853        N858   1.438       .  S
C854        C855   1.406       .  A
C855        C856   1.404       .  A
C855        H859   1.084       .  S
C856        N860   1.438       .  S
N858        H861   1.046       .  S
N858        H862   1.042       .  S
N860        H863   1.045       .  S
N860        H864   1.046       .  S
C869        C870   1.413       .  A
C869        C874   1.407       .  A
C870        C871   1.409       .  A
C870        N875   1.437       .  S
C871        C872   1.403       .  A
C871        H876   1.084       .  S
C872        C873   1.408       .  A
C872        C877   1.484       .  S
C873        C874   1.409       .  A
C873        N878   1.438       .  S
C874        H879   1.084       .  S
N875        H895   1.045       .  S
N875        H896   1.046       .  S
C877        C880   1.401       .  A
C877        C884   1.413       .  A
N878        H893   1.045       .  S
N878        H894   1.044       .  S
C880        C881   1.406       .  A
C880        H885   1.084       .  S
C881        C882   1.413       .  A
C881        N886   1.438       .  S
C882        C883   1.403       .  A
C883        C884   1.409       .  A
C883        H887   1.084       .  S
C884        N888   1.438       .  S
N886        H889   1.046       .  S
N886        H890   1.045       .  S
N888        H891   1.046       .  S
N888        H892   1.043       .  S
C897        C898   1.417       .  A
C897        C902   1.405       .  A
C898        C899   1.407       .  A
C898        N903   1.438       .  S
C899        C900   1.400       .  A
C899        H904   1.084       .  S
C900        C901   1.412       .  A
C900        C905   1.489       .  S
C901        C902   1.411       .  A
C901        N906   1.437       .  S
C902        H907   1.083       .  S
N903        H923   1.046       .  S
N903        H924   1.046       .  S
C905        C908   1.404       .  A
C905        C912   1.419       .  A
N906        H921   1.046       .  S
N906        H922   1.046       .  S
C908        C909   1.406       .  A
C908        H913   1.084       .  S
C909        C910   1.418       .  A
C909        N914   1.438       .  S
C910        C911   1.402       .  A
C911        C912   1.404       .  A
C911        H915   1.084       .  S
C912        N916   1.439       .  S
N914        H917   1.046       .  S
N914        H918   1.044       .  S
N916        H919   1.046       .  S
N916        H920   1.042       .  S
C925        C926   1.411       .  A
C925        C930   1.402       .  A
C926        C927   1.406       .  A
C926        N931   1.439       .  S
C927        C928   1.402       .  A
C927        H932   1.084       .  S
C928        C929   1.417       .  A
C928        C933   1.483       .  S
C929        C930   1.404       .  A
C929        N934   1.438       .  S
C930        H935   1.084       .  S
N931        H951   1.045       .  S
N931        H952   1.046       .  S
C933        C936   1.401       .  A
C933        C940   1.408       .  A
N934        H949   1.045       .  S
N934        H950   1.044       .  S
C936        C937   1.410       .  A
C936        H941   1.084       .  S
C937        C938   1.418       .  A
C937        N942   1.438       .  S
C938        C939   1.405       .  A
C939        C940   1.404       .  A
C939        H943   1.083       .  S
C940        N944   1.438       .  S
N942        H945   1.046       .  S
N942        H946   1.046       .  S
N944        H947   1.046       .  S
N944        H948   1.045       .  S
C953        C954   1.417       .  A
C953        C958   1.403       .  A
C954        C955   1.402       .  A
C954        N959   1.439       .  S
C955        C956   1.401       .  A
C955        H960   1.084       .  S
C956        C957   1.415       .  A
C956        C961   1.481       .  S
C957        C958   1.402       .  A
C957        N962   1.438       .  S
C958        H963   1.084       .  S
N959        H979   1.043       .  S
N959        H980   1.045       .  S
C961        C964   1.400       .  A
C961        C968   1.410       .  A
N962        H977   1.046       .  S
N962        H978   1.043       .  S
C964        C965   1.408       .  A
C964        H969   1.084       .  S
C965        C966   1.416       .  A
C965        N970   1.438       .  S
C966        C967   1.404       .  A
C967        C968   1.406       .  A
C967        H971   1.084       .  S
C968        N972   1.438       .  S
N970        H973   1.046       .  S
N970        H974   1.046       .  S
N972        H975   1.046       .  S
N972        H976   1.045       .  S
C981        C982   1.406       .  A
C981        C986   1.401       .  A
C982        C983   1.403       .  A
C982        N987   1.432       .  S
C983        C984   1.403       .  A
C983        H988   1.084       .  S
C984        C985   1.411       .  A
C984        C989   1.481       .  S
C985        C986   1.405       .  A
C985        N990   1.438       .  S
C986        H991   1.084       .  S
N987       H1007   1.045       .  S
N987       H1008   1.046       .  S
C989        C992   1.399       .  A
C989        C996   1.409       .  A
N990       H1005   1.045       .  S
N990       H1006   1.046       .  S
C992        C993   1.406       .  A
C992        H997   1.084       .  S
C993        C994   1.418       .  A
C993        N998   1.438       .  S
C994        C995   1.405       .  A
C995        C996   1.405       .  A
C995        H999   1.083       .  S
C996       N1000   1.438       .  S
N998       H1001   1.046       .  S
N998       H1002   1.046       .  S
N1000      H1003   1.044       .  S
N1000      H1004   1.048       .  S
C1009      C1010   1.412       .  A
C1009      C1014   1.405       .  A
C1010      C1011   1.408       .  A
C1010      N1015   1.437       .  S
C1011      C1012   1.403       .  A
C1011      H1016   1.084       .  S
C1012      C1013   1.410       .  A
C1012      C1017   1.487       .  S
C1013      C1014   1.406       .  A
C1013      N1018   1.438       .  S
C1014      H1019   1.084       .  S
N1015      H1035   1.045       .  S
N1015      H1036   1.046       .  S
C1017      C1020   1.403       .  A
C1017      C1024   1.409       .  A
N1018      H1033   1.046       .  S
N1018      H1034   1.045       .  S
C1020      C1021   1.405       .  A
C1020      H1025   1.084       .  S
C1021      C1022   1.413       .  A
C1021      N1026   1.438       .  S
C1022      C1023   1.409       .  A
C1023      C1024   1.409       .  A
C1023      H1027   1.084       .  S
C1024      N1028   1.438       .  S
N1026      H1029   1.046       .  S
N1026      H1030   1.045       .  S
N1028      H1031   1.046       .  S
N1028      H1032   1.046       .  S
C1037      C1038   1.415       .  A
C1037      C1042   1.403       .  A
C1038      C1039   1.405       .  A
C1038      N1043   1.438       .  S
C1039      C1040   1.400       .  A
C1039      H1044   1.084       .  S
C1040      C1041   1.414       .  A
C1040      C1045   1.489       .  S
C1041      C1042   1.409       .  A
C1041      N1046   1.438       .  S
C1042      H1047   1.084       .  S
N1043      H1063   1.046       .  S
N1043      H1064   1.046       .  S
C1045      C1048   1.401       .  A
C1045      C1052   1.415       .  A
N1046      H1061   1.046       .  S
N1046      H1062   1.046       .  S
C1048      C1049   1.403       .  A
C1048      H1053   1.084       .  S
C1049      C1050   1.411       .  A
C1049      N1054   1.433       .  S
C1050      C1051   1.403       .  A
C1051      C1052   1.410       .  A
C1051      H1055   1.084       .  S
C1052      N1056   1.438       .  S
N1054      H1057   1.046       .  S
N1054      H1058   1.045       .  S
N1056      H1059   1.046       .  S
N1056      H1060   1.046       .  S
C1065      C1066   1.414       .  A
C1065      C1070   1.409       .  A
C1066      C1067   1.407       .  A
C1066      N1071   1.437       .  S
C1067      C1068   1.401       .  A
C1067      H1072   1.084       .  S
C1068      C1069   1.405       .  A
C1068      C1073   1.478       .  S
C1069      C1070   1.406       .  A
C1069      N1074   1.438       .  S
C1070      H1075   1.083       .  S
N1071      H1091   1.046       .  S
N1071      H1092   1.046       .  S
C1073      C1076   1.402       .  A
C1073      C1080   1.409       .  A
N1074      H1089   1.046       .  S
N1074      H1090   1.045       .  S
C1076      C1077   1.408       .  A
C1076      H1081   1.084       .  S
C1077      C1078   1.410       .  A
C1077      N1082   1.437       .  S
C1078      C1079   1.402       .  A
C1079      C1080   1.403       .  A
C1079      H1083   1.084       .  S
C1080      N1084   1.438       .  S
N1082      H1085   1.046       .  S
N1082      H1086   1.045       .  S
N1084      H1087   1.046       .  S
N1084      H1088   1.045       .  S
C1093      C1094   1.410       .  A
C1093      C1098   1.403       .  A
C1094      C1095   1.407       .  A
C1094      N1099   1.438       .  S
C1095      C1096   1.405       .  A
C1095      H1100   1.084       .  S
C1096      C1097   1.411       .  A
C1096      C1101   1.488       .  S
C1097      C1098   1.407       .  A
C1097      N1102   1.437       .  S
C1098      H1103   1.084       .  S
N1099      H1119   1.045       .  S
N1099      H1120   1.046       .  S
C1101      C1104   1.406       .  A
C1101      C1108   1.407       .  A
N1102      H1117   1.046       .  S
N1102      H1118   1.046       .  S
C1104      C1105   1.410       .  A
C1104      H1109   1.084       .  S
C1105      C1106   1.415       .  A
C1105      N1110   1.437       .  S
C1106      C1107   1.408       .  A
C1107      C1108   1.404       .  A
C1107      H1111   1.083       .  S
C1108      N1112   1.438       .  S
N1110      H1113   1.046       .  S
N1110      H1114   1.045       .  S
N1112      H1115   1.046       .  S
N1112      H1116   1.046       .  S
C1121      C1122   1.414       .  A
C1121      C1126   1.409       .  A
C1122      C1123   1.408       .  A
C1122      N1127   1.437       .  S
C1123      C1124   1.403       .  A
C1123      H1128   1.084       .  S
C1124      C1125   1.407       .  A
C1124      C1129   1.486       .  S
C1125      C1126   1.406       .  A
C1125      N1130   1.438       .  S
C1126      H1131   1.083       .  S
N1127      H1147   1.046       .  S
N1127      H1148   1.046       .  S
C1129      C1132   1.404       .  A
C1129      C1136   1.410       .  A
N1130      H1145   1.046       .  S
N1130      H1146   1.046       .  S
C1132      C1133   1.407       .  A
C1132      H1137   1.084       .  S
C1133      C1134   1.410       .  A
C1133      N1138   1.438       .  S
C1134      C1135   1.402       .  A
C1135      C1136   1.406       .  A
C1135      H1139   1.084       .  S
C1136      N1140   1.437       .  S
N1138      H1141   1.046       .  S
N1138      H1142   1.046       .  S
N1140      H1143   1.046       .  S
N1140      H1144   1.046       .  S
C1149      C1150   1.408       .  A
C1149      C1154   1.403       .  A
C1150      C1151   1.409       .  A
C1150      N1155   1.432       .  S
C1151      C1152   1.405       .  A
C1151      H1156   1.084       .  S
C1152      C1153   1.408       .  A
C1152      C1157   1.482       .  S
C1153      C1154   1.403       .  A
C1153      N1158   1.438       .  S
C1154      H1159   1.084       .  S
N1155      H1175   1.045       .  S
N1155      H1176   1.046       .  S
C1157      C1160   1.404       .  A
C1157      C1164   1.405       .  A
N1158      H1173   1.046       .  S
N1158      H1174   1.046       .  S
C1160      C1161   1.408       .  A
C1160      H1165   1.084       .  S
C1161      C1162   1.414       .  A
C1161      N1166   1.437       .  S
C1162      C1163   1.409       .  A
C1163      C1164   1.406       .  A
C1163      H1167   1.083       .  S
C1164      N1168   1.437       .  S
N1166      H1169   1.046       .  S
N1166      H1170   1.045       .  S
N1168      H1171   1.046       .  S
N1168      H1172   1.046       .  S
C1177      C1178   1.415       .  A
C1177      C1182   1.410       .  A
C1178      C1179   1.408       .  A
C1178      N1183   1.437       .  S
C1179      C1180   1.402       .  A
C1179      H1184   1.084       .  S
C1180      C1181   1.405       .  A
C1180      C1185   1.481       .  S
C1181      C1182   1.407       .  A
C1181      N1186   1.438       .  S
C1182      H1187   1.083       .  S
N1183      H1203   1.045       .  S
N1183      H1204   1.046       .  S
C1185      C1188   1.404       .  A
C1185      C1192   1.407       .  A
N1186      H1201   1.045       .  S
N1186      H1202   1.045       .  S
C1188      C1189   1.411       .  A
C1188      H1193   1.084       .  S
C1189      C1190   1.410       .  A
C1189      N1194   1.437       .  S
C1190      C1191   1.404       .  A
C1191      C1192   1.403       .  A
C1191      H1195   1.084       .  S
C1192      N1196   1.438       .  S
N1194      H1197   1.046       .  S
N1194      H1198   1.045       .  S
N1196      H1199   1.046       .  S
N1196      H1200   1.045       .  S
C1205      C1206   1.413       .  A
C1205      C1210   1.408       .  A
C1206      C1207   1.409       .  A
C1206      N1211   1.438       .  S
C1207      C1208   1.403       .  A
C1207      H1212   1.084       .  S
C1208      C1209   1.408       .  A
C1208      C1213   1.487       .  S
C1209      C1210   1.409       .  A
C1209      N1214   1.437       .  S
C1210      H1215   1.084       .  S
N1211      H1231   1.046       .  S
N1211      H1232   1.046       .  S
C1213      C1216   1.404       .  A
C1213      C1220   1.407       .  A
N1214      H1229   1.046       .  S
N1214      H1230   1.046       .  S
C1216      C1217   1.409       .  A
C1216      H1221   1.084       .  S
C1217      C1218   1.419       .  A
C1217      N1222   1.438       .  S
C1218      C1219   1.406       .  A
C1219      C1220   1.405       .  A
C1219      H1223   1.084       .  S
C1220      N1224   1.438       .  S
N1222      H1225   1.045       .  S
N1222      H1226   1.043       .  S
N1224      H1227   1.046       .  S
N1224      H1228   1.045       .  S
C1233      C1234   1.409       .  A
C1233      C1238   1.401       .  A
C1234      C1235   1.409       .  A
C1234      N1239   1.437       .  S
C1235      C1236   1.404       .  A
C1235      H1240   1.084       .  S
C1236      C1237   1.417       .  A
C1236      C1241   1.481       .  S
C1237      C1238   1.399       .  A
C1237      N1242   1.439       .  S
C1238      H1243   1.084       .  S
N1239      H1259   1.046       .  S
N1239      H1260   1.046       .  S
C1241      C1244   1.398       .  A
C1241      C1248   1.409       .  A
N1242      H1257   1.045       .  S
N1242      H1258   1.043       .  S
C1244      C1245   1.407       .  A
C1244      H1249   1.084       .  S
C1245      C1246   1.420       .  A
C1245      N1250   1.438       .  S
C1246      C1247   1.406       .  A
C1247      C1248   1.407       .  A
C1247      H1251   1.083       .  S
C1248      N1252   1.438       .  S
N1250      H1253   1.045       .  S
N1250      H1254   1.046       .  S
N1252      H1255   1.046       .  S
N1252      H1256   1.046       .  S
C1261      C1262   1.415       .  A
C1261      C1266   1.403       .  A
C1262      C1263   1.407       .  A
C1262      N1267   1.438       .  S
C1263      C1264   1.401       .  A
C1263      H1268   1.084       .  S
C1264      C1265   1.413       .  A
C1264      C1269   1.487       .  S
C1265      C1266   1.409       .  A
C1265      N1270   1.438       .  S
C1266      H1271   1.084       .  S
N1267      H1287   1.046       .  S
N1267      H1288   1.046       .  S
C1269      C1272   1.404       .  A
C1269      C1276   1.415       .  A
N1270      H1285   1.046       .  S
N1270      H1286   1.044       .  S
C1272      C1273   1.404       .  A
C1272      H1277   1.084       .  S
C1273      C1274   1.417       .  A
C1273      N1278   1.438       .  S
C1274      C1275   1.406       .  A
C1275      C1276   1.404       .  A
C1275      H1279   1.084       .  S
C1276      N1280   1.438       .  S
N1278      H1281   1.045       .  S
N1278      H1282   1.043       .  S
N1280      H1283   1.045       .  S
N1280      H1284   1.044       .  S
C1289      C1290   1.418       .  A
C1289      C1294   1.404       .  A
C1290      C1291   1.407       .  A
C1290      N1295   1.438       .  S
C1291      C1292   1.403       .  A
C1291      H1296   1.084       .  S
C1292      C1293   1.407       .  A
C1292      C1297   1.483       .  S
C1293      C1294   1.403       .  A
C1293      N1298   1.438       .  S
C1294      H1299   1.084       .  S
N1295      H1315   1.043       .  S
N1295      H1316   1.045       .  S
C1297      C1300   1.403       .  A
C1297      C1304   1.406       .  A
N1298      H1313   1.045       .  S
N1298      H1314   1.046       .  S
C1300      C1301   1.408   1_554  A
C1300      H1305   1.084       .  S
C1301      C1302   1.414       .  A
C1301      N1306   1.438       .  S
C1302      C1303   1.409   1_556  A
C1303      C1304   1.408       .  A
C1303      H1307   1.083       .  S
C1304      N1308   1.438       .  S
N1306      H1309   1.046       .  S
N1306      H1310   1.046       .  S
N1308      H1311   1.046       .  S
N1308      H1312   1.046       .  S
C1317      C1318   1.415       .  A
C1317      C1322   1.403       .  A
C1318      C1319   1.407       .  A
C1318      N1323   1.438       .  S
C1319      C1320   1.401       .  A
C1319      H1324   1.084       .  S
C1320      C1321   1.413       .  A
C1320      C1325   1.488       .  S
C1321      C1322   1.409       .  A
C1321      N1326   1.438       .  S
C1322      H1327   1.084       .  S
N1323      H1343   1.046       .  S
N1323      H1344   1.046       .  S
C1325      C1328   1.401       .  A
C1325      C1332   1.413       .  A
N1326      H1341   1.046       .  S
N1326      H1342   1.046       .  S
C1328      C1329   1.400       .  A
C1328      H1333   1.084       .  S
C1329      C1330   1.418       .  A
C1329      N1334   1.438       .  S
C1330      C1331   1.403       .  A
C1331      C1332   1.410       .  A
C1331      H1335   1.084       .  S
C1332      N1336   1.438       .  S
N1334      H1337   1.046       .  S
N1334      H1338   1.044       .  S
N1336      H1339   1.046       .  S
N1336      H1340   1.046       .  S
C1345      C1346   1.408       .  A
C1345      C1350   1.402       .  A
C1346      C1347   1.405       .  A
C1346      N1351   1.438       .  S
C1347      C1348   1.406       .  A
C1347      H1352   1.084       .  S
C1348      C1349   1.410       .  A
C1348      C1353   1.485       .  S
C1349      C1350   1.404       .  A
C1349      N1354   1.437       .  S
C1350      H1355   1.084       .  S
N1351      H1371   1.046       .  S
N1351      H1372   1.046       .  S
C1353      C1356   1.406       .  A
C1353      C1360   1.407       .  A
N1354      H1369   1.046       .  S
N1354      H1370   1.045       .  S
C1356      C1357   1.407       .  A
C1356      H1361   1.084       .  S
C1357      C1358   1.414       .  A
C1357      N1362   1.438       .  S
C1358      C1359   1.407       .  A
C1359      C1360   1.401       .  A
C1359      H1363   1.083       .  S
C1360      N1364   1.438       .  S
N1362      H1365   1.046       .  S
N1362      H1366   1.046       .  S
N1364      H1367   1.046       .  S
N1364      H1368   1.046       .  S
C1373      C1374   1.416       .  A
C1373      C1378   1.403       .  A
C1374      C1375   1.400       .  A
C1374      N1379   1.439       .  S
C1375      C1376   1.402       .  A
C1375      H1380   1.084       .  S
C1376      C1377   1.409       .  A
C1376      C1381   1.480       .  S
C1377      C1378   1.405       .  A
C1377      N1382   1.437       .  S
C1378      H1383   1.084       .  S
N1379      H1399   1.044       .  S
N1379      H1400   1.045       .  S
C1381      C1384   1.403       .  A
C1381      C1388   1.406       .  A
N1382      H1397   1.046       .  S
N1382      H1398   1.046       .  S
C1384      C1385   1.406   1_554  A
C1384      H1389   1.084       .  S
C1385      C1386   1.415       .  A
C1385      N1390   1.438       .  S
C1386      C1387   1.408       .  A
C1387      C1388   1.402   1_556  A
C1387      H1391   1.083       .  S
C1388      N1392   1.438       .  S
N1390      H1393   1.046       .  S
N1390      H1394   1.046       .  S
N1392      H1395   1.046       .  S
N1392      H1396   1.046       .  S
C1401      C1402   1.409       .  A
C1401      C1406   1.403       .  A
C1402      C1403   1.409       .  A
C1402      N1407   1.437       .  S
C1403      C1404   1.405       .  A
C1403      H1408   1.084       .  S
C1404      C1405   1.417       .  A
C1404      C1409   1.489       .  S
C1405      C1406   1.403       .  A
C1405      N1410   1.438       .  S
C1406      H1411   1.084       .  S
N1407      H1427   1.045       .  S
N1407      H1428   1.046       .  S
C1409      C1412   1.400       .  A
C1409      C1416   1.413       .  A
N1410      H1425   1.045       .  S
N1410      H1426   1.044       .  S
C1412      C1413   1.409       .  A
C1412      H1417   1.084       .  S
C1413      C1414   1.417       .  A
C1413      N1418   1.438       .  S
C1414      C1415   1.404       .  A
C1415      C1416   1.410       .  A
C1415      H1419   1.083       .  S
C1416      N1420   1.438       .  S
N1418      H1421   1.046       .  S
N1418      H1422   1.046       .  S
N1420      H1423   1.046       .  S
N1420      H1424   1.044       .  S
C1429      C1430   1.416       .  A
C1429      C1434   1.404       .  A
C1430      C1431   1.401       .  A
C1430      N1435   1.439       .  S
C1431      C1432   1.403       .  A
C1431      H1436   1.084       .  S
C1432      C1433   1.410       .  A
C1432      C1437   1.486       .  S
C1433      C1434   1.408       .  A
C1433      N1438   1.437       .  S
C1434      H1439   1.084       .  S
N1435      H1455   1.043       .  S
N1435      H1456   1.046       .  S
C1437      C1440   1.403       .  A
C1437      C1444   1.407       .  A
N1438      H1453   1.046       .  S
N1438      H1454   1.046       .  S
C1440      C1441   1.409       .  A
C1440      H1445   1.084       .  S
C1441      C1442   1.416       .  A
C1441      N1446   1.437       .  S
C1442      C1443   1.408       .  A
C1443      C1444   1.405       .  A
C1443      H1447   1.083       .  S
C1444      N1448   1.438       .  S
N1446      H1449   1.046       .  S
N1446      H1450   1.046       .  S
N1448      H1451   1.046       .  S
N1448      H1452   1.046       .  S
C1457      C1458   1.419       .  A
C1457      C1462   1.404       .  A
C1458      C1459   1.410       .  A
C1458      N1463   1.438       .  S
C1459      C1460   1.401       .  A
C1459      H1464   1.084       .  S
C1460      C1461   1.410       .  A
C1460      C1465   1.484   1_556  S
C1461      C1462   1.406       .  A
C1461      N1466   1.438   1_556  S
C1462      H1467   1.083       .  S
N1463      H1483   1.046       .  S
N1463      H1484   1.046       .  S
C1465      C1468   1.401       .  A
C1465      C1472   1.409       .  A
N1466      H1481   1.046       .  S
N1466      H1482   1.045       .  S
C1468      C1469   1.403       .  A
C1468      H1473   1.084       .  S
C1469      C1470   1.417       .  A
C1469      N1474   1.439       .  S
C1470      C1471   1.404       .  A
C1471      C1472   1.408       .  A
C1471      H1475   1.084       .  S
C1472      N1476   1.437   1_554  S
N1474      H1477   1.046       .  S
N1474      H1478   1.043       .  S
N1476      H1479   1.046       .  S
N1476      H1480   1.046       .  S
C1485      C1486   1.419       .  A
C1485      C1490   1.406       .  A
C1486      C1487   1.407       .  A
C1486      N1491   1.438       .  S
C1487      C1488   1.401       .  A
C1487      H1492   1.084       .  S
C1488      C1489   1.409       .  A
C1488      C1493   1.484       .  S
C1489      C1490   1.405       .  A
C1489      N1494   1.438       .  S
C1490      H1495   1.083       .  S
N1491      H1511   1.045       .  S
N1491      H1512   1.046       .  S
C1493      C1496   1.405       .  A
C1493      C1500   1.411       .  A
N1494      H1509   1.045       .  S
N1494      H1510   1.046       .  S
C1496      C1497   1.407       .  A
C1496      H1501   1.084       .  S
C1497      C1498   1.408       .  A
C1497      N1502   1.437       .  S
C1498      C1499   1.401       .  A
C1499      C1500   1.403       .  A
C1499      H1503   1.084       .  S
C1500      N1504   1.438       .  S
N1502      H1505   1.046       .  S
N1502      H1506   1.046       .  S
N1504      H1507   1.046       .  S
N1504      H1508   1.046       .  S
C1513      C1514   1.413       .  A
C1513      C1518   1.400       .  A
C1514      C1515   1.406       .  A
C1514      N1519   1.438       .  S
C1515      C1516   1.401       .  A
C1515      H1520   1.084       .  S
C1516      C1517   1.412       .  A
C1516      C1521   1.483       .  S
C1517      C1518   1.406       .  A
C1517      N1522   1.438       .  S
C1518      H1523   1.084       .  S
N1519      H1539   1.045       .  S
N1519      H1540   1.046       .  S
C1521      C1524   1.401       .  A
C1521      C1528   1.410       .  A
N1522      H1537   1.046       .  S
N1522      H1538   1.045       .  S
C1524      C1525   1.399       .  A
C1524      H1529   1.084       .  S
C1525      C1526   1.416       .  A
C1525      N1530   1.438       .  S
C1526      C1527   1.404       .  A
C1527      C1528   1.408       .  A
C1527      H1531   1.084       .  S
C1528      N1532   1.437       .  S
N1530      H1533   1.046       .  S
N1530      H1534   1.043       .  S
N1532      H1535   1.046       .  S
N1532      H1536   1.045       .  S
C1541      C1542   1.415       .  A
C1541      C1546   1.410       .  A
C1542      C1543   1.408       .  A
C1542      N1547   1.437       .  S
C1543      C1544   1.402       .  A
C1543      H1548   1.084       .  S
C1544      C1545   1.406       .  A
C1544      C1549   1.483       .  S
C1545      C1546   1.407       .  A
C1545      N1550   1.438       .  S
C1546      H1551   1.083       .  S
N1547      H1567   1.045       .  S
N1547      H1568   1.046       .  S
C1549      C1552   1.404       .  A
C1549      C1556   1.407       .  A
N1550      H1565   1.046       .  S
N1550      H1566   1.045       .  S
C1552      C1553   1.411       .  A
C1552      H1557   1.084       .  S
C1553      C1554   1.412       .  A
C1553      N1558   1.437       .  S
C1554      C1555   1.406       .  A
C1555      C1556   1.404       .  A
C1555      H1559   1.084       .  S
C1556      N1560   1.438       .  S
N1558      H1561   1.046       .  S
N1558      H1562   1.046       .  S
N1560      H1563   1.046       .  S
N1560      H1564   1.046       .  S
C1569      C1570   1.409       .  A
C1569      C1574   1.402       .  A
C1570      C1571   1.409       .  A
C1570      N1575   1.437       .  S
C1571      C1572   1.404       .  A
C1571      H1576   1.084   1_554  S
C1572      C1573   1.412       .  A
C1572      C1577   1.488   1_554  S
C1573      C1574   1.408       .  A
C1573      N1578   1.438       .  S
C1574      H1579   1.084       .  S
N1575      H1595   1.046       .  S
N1575      H1596   1.046       .  S
C1577      C1580   1.402       .  A
C1577      C1584   1.411       .  A
N1578      H1593   1.046       .  S
N1578      H1594   1.046       .  S
C1580      C1581   1.410       .  A
C1580      H1585   1.084       .  S
C1581      C1582   1.418       .  A
C1581      N1586   1.438       .  S
C1582      C1583   1.404       .  A
C1583      C1584   1.408       .  A
C1583      H1587   1.083       .  S
C1584      N1588   1.438   1_556  S
N1586      H1589   1.046       .  S
N1586      H1590   1.046       .  S
N1588      H1591   1.046       .  S
N1588      H1592   1.046       .  S
C1597      C1598   1.409       .  A
C1597      C1602   1.405       .  A
C1598      C1599   1.408       .  A
C1598      N1603   1.437       .  S
C1599      C1600   1.405       .  A
C1599      H1604   1.084       .  S
C1600      C1601   1.410       .  A
C1600      C1605   1.490       .  S
C1601      C1602   1.408       .  A
C1601      N1606   1.437       .  S
C1602      H1607   1.084       .  S
N1603      H1623   1.045       .  S
N1603      H1624   1.046       .  S
C1605      C1608   1.406       .  A
C1605      C1612   1.408       .  A
N1606      H1621   1.046       .  S
N1606      H1622   1.046       .  S
C1608      C1609   1.411       .  A
C1608      H1613   1.084       .  S
C1609      C1610   1.414       .  A
C1609      N1614   1.438       .  S
C1610      C1611   1.407       .  A
C1611      C1612   1.405       .  A
C1611      H1615   1.084       .  S
C1612      N1616   1.437       .  S
N1614      H1617   1.046       .  S
N1614      H1618   1.045       .  S
N1616      H1619   1.046       .  S
N1616      H1620   1.046       .  S
C1625      C1626   1.413       .  A
C1625      C1630   1.408       .  A
C1626      C1627   1.405       .  A
C1626      N1631   1.438       .  S
C1627      C1628   1.401       .  A
C1627      H1632   1.084       .  S
C1628      C1629   1.406       .  A
C1628      C1633   1.477       .  S
C1629      C1630   1.406       .  A
C1629      N1634   1.438       .  S
C1630      H1635   1.084       .  S
N1631      H1651   1.046       .  S
N1631      H1652   1.046       .  S
C1633      C1636   1.401       .  A
C1633      C1640   1.408       .  A
N1634      H1649   1.046       .  S
N1634      H1650   1.045       .  S
C1636      C1637   1.404       .  A
C1636      H1641   1.084       .  S
C1637      C1638   1.417       .  A
C1637      N1642   1.438       .  S
C1638      C1639   1.403       .  A
C1639      C1640   1.403       .  A
C1639      H1643   1.084       .  S
C1640      N1644   1.438       .  S
N1642      H1645   1.045       .  S
N1642      H1646   1.043       .  S
N1644      H1647   1.045       .  S
N1644      H1648   1.045       .  S
C1653      C1654   1.415       .  A
C1653      C1658   1.409       .  A
C1654      C1655   1.410       .  A
C1654      N1659   1.437       .  S
C1655      C1656   1.403       .  A
C1655      H1660   1.084       .  S
C1656      C1657   1.406       .  A
C1656      C1661   1.483       .  S
C1657      C1658   1.405       .  A
C1657      N1662   1.438       .  S
C1658      H1663   1.083       .  S
N1659      H1679   1.046       .  S
N1659      H1680   1.046       .  S
C1661      C1664   1.404       .  A
C1661      C1668   1.409       .  A
N1662      H1677   1.046       .  S
N1662      H1678   1.044       .  S
C1664      C1665   1.411       .  A
C1664      H1669   1.083       .  S
C1665      C1666   1.411       .  A
C1665      N1670   1.437       .  S
C1666      C1667   1.405       .  A
C1667      C1668   1.404       .  A
C1667      H1671   1.084       .  S
C1668      N1672   1.438       .  S
N1670      H1673   1.046       .  S
N1670      H1674   1.046       .  S
N1672      H1675   1.046       .  S
N1672      H1676   1.045       .  S
C1681      C1682   1.409       .  A
C1681      C1686   1.403       .  A
C1682      C1683   1.403       .  A
C1682      N1687   1.437       .  S
C1683      C1684   1.402       .  A
C1683      H1688   1.084       .  S
C1684      C1685   1.417       .  A
C1684      C1689   1.482       .  S
C1685      C1686   1.406       .  A
C1685      N1690   1.438       .  S
C1686      H1691   1.084       .  S
N1687      H1707   1.045       .  S
N1687      H1708   1.046       .  S
C1689      C1692   1.401       .  A
C1689      C1696   1.409       .  A
N1690      H1705   1.045       .  S
N1690      H1706   1.044       .  S
C1692      C1693   1.409       .  A
C1692      H1697   1.084       .  S
C1693      C1694   1.415       .  A
C1693      N1698   1.438       .  S
C1694      C1695   1.403       .  A
C1695      C1696   1.404       .  A
C1695      H1699   1.084       .  S
C1696      N1700   1.438       .  S
N1698      H1701   1.046       .  S
N1698      H1702   1.046       .  S
N1700      H1703   1.046       .  S
N1700      H1704   1.046       .  S
C1709      C1710   1.407       .  A
C1709      C1714   1.404       .  A
C1710      C1711   1.407       .  A
C1710      N1715   1.432       .  S
C1711      C1712   1.404       .  A
C1711      H1716   1.084       .  S
C1712      C1713   1.411       .  A
C1712      C1717   1.486       .  S
C1713      C1714   1.407       .  A
C1713      N1718   1.438       .  S
C1714      H1719   1.084       .  S
N1715      H1735   1.045       .  S
N1715      H1736   1.045       .  S
C1717      C1720   1.403       .  A
C1717      C1724   1.407       .  A
N1718      H1733   1.046       .  S
N1718      H1734   1.045       .  S
C1720      C1721   1.409       .  A
C1720      H1725   1.084       .  S
C1721      C1722   1.416       .  A
C1721      N1726   1.437       .  S
C1722      C1723   1.410       .  A
C1723      C1724   1.410       .  A
C1723      H1727   1.083       .  S
C1724      N1728   1.438       .  S
N1726      H1729   1.046       .  S
N1726      H1730   1.046       .  S
N1728      H1731   1.045       .  S
N1728      H1732   1.045       .  S
C1737      C1738   1.408       .  A
C1737      C1742   1.404       .  A
C1738      C1739   1.406       .  A
C1738      N1743   1.437       .  S
C1739      C1740   1.405       .  A
C1739      H1744   1.084       .  S
C1740      C1741   1.410       .  A
C1740      C1745   1.488       .  S
C1741      C1742   1.407       .  A
C1741      N1746   1.437       .  S
C1742      H1747   1.084       .  S
N1743      H1763   1.045       .  S
N1743      H1764   1.046       .  S
C1745      C1748   1.406       .  A
C1745      C1752   1.408       .  A
N1746      H1761   1.046       .  S
N1746      H1762   1.046       .  S
C1748      C1749   1.410       .  A
C1748      H1753   1.084       .  S
C1749      C1750   1.413       .  A
C1749      N1754   1.437       .  S
C1750      C1751   1.408       .  A
C1751      C1752   1.405       .  A
C1751      H1755   1.084       .  S
C1752      N1756   1.438       .  S
N1754      H1757   1.046       .  S
N1754      H1758   1.046       .  S
N1756      H1759   1.046       .  S
N1756      H1760   1.046       .  S
