geometry optimzed in LAMMPS
_audit_creation_date              2020-11-30 
_audit_creation_method            'lammps2cif' 
_symmetry_space_group_name_H-M    'P1' 
_symmetry_Int_Tables_number       1 
_symmetry_cell_setting            triclinic 
loop_ 
_symmetry_equiv_pos_as_xyz 
  x,y,z 
_cell_length_a                    52.73996747 
_cell_length_b                    52.632936893420876 
_cell_length_c                    28.088283352321668 
_cell_angle_alpha                 90.00184032911814 
_cell_angle_beta                  90.00342724768186 
_cell_angle_gamma                 120.00696635254985 
loop_ 
_atom_site_label 
_atom_site_type_symbol 
_atom_site_fract_x 
_atom_site_fract_y 
_atom_site_fract_z 
_atom_site_charge 
O1          O  0.47668461  0.05631114  0.58145031    -0.74500
O2          O  0.48715350  0.03091176  0.63611935    -0.53400
C3          C  0.47831316  0.04881878  0.62452121     0.79200
O4          O  0.42284072  0.94433500  0.41569482    -0.59100
O5          O  0.45893401  0.97099035  0.36214046    -0.52200
C6          C  0.43244651  0.95156821  0.37274113     0.71200
O7          O  0.42005692  0.94614473  0.57655317    -0.73700
O8          O  0.45518858  0.97078610  0.63285917    -0.54300
C9          C  0.42867138  0.95309322  0.61997243     0.77200
O10         O  0.48160983  0.06166299  0.42147857    -0.58800
O11         O  0.49009166  0.03528463  0.36560543    -0.52000
C12         C  0.48341796  0.05469452  0.37822329     0.73800
Zr13       Zr  0.48642048  0.04596029  0.50082048     2.54700
O14         O  0.44136239  0.04804865  0.50038213    -0.79400
O15         O  0.51667016  0.09924547  0.50343343    -0.92800
Zr16       Zr  0.44177554  0.95800498  0.49698283     2.64700
O17         O  0.39390399  0.95437416  0.49374001    -0.97800
O18         O  0.42021609  0.90495064  0.50065226    -0.79800
O19         O  0.46297557  0.00132375  0.54392053    -0.83200
O20         O  0.46373175  0.00270839  0.45355774    -2.17900
O21         O  0.58235234  0.05741128  0.42133802    -0.66600
O22         O  0.54636223  0.03523126  0.36539574    -0.51100
C23         C  0.57318498  0.05178529  0.37794315     0.72200
O24         O  0.52504164  0.94557097  0.57816047    -0.59500
O25         O  0.51104317  0.96766021  0.63384641    -0.51500
C26         C  0.52087595  0.95070773  0.62142736     0.74000
O27         O  0.52536463  0.94661650  0.41708664    -0.70900
O28         O  0.51694649  0.97370922  0.36265501    -0.49600
C29         C  0.52468570  0.95491636  0.37413488     0.75400
O30         O  0.58003601  0.05637123  0.58242468    -0.66200
O31         O  0.54367500  0.03108107  0.63631235    -0.53400
C32         C  0.57037173  0.04946786  0.62531548     0.73800
Zr33       Zr  0.56107880  0.04510184  0.50130215     2.77500
O34         O  0.60795315  0.04645476  0.50298008    -0.97000
O35         O  0.58422651  0.09838069  0.50142817    -0.77800
Zr36       Zr  0.51664222  0.95766242  0.49805708     2.70100
O37         O  0.56085640  0.95399780  0.49708101    -0.79000
O38         O  0.48678298  0.90440854  0.49830480    -0.98100
Zr39       Zr  0.50030549  0.00050263  0.58987849     2.21500
Zr40       Zr  0.50214758  0.00295376  0.40863813     2.11100
O41         O  0.53970698  0.00199816  0.45443076    -2.46800
O42         O  0.53887581  0.00074004  0.54549311    -0.78800
O43         O  0.52450902  0.04686909  0.45454094    -0.71000
O44         O  0.47830496  0.95644811  0.54405788    -2.32000
O45         O  0.52369404  0.04572548  0.54751037    -2.28200
O46         O  0.47928249  0.95763611  0.45082982    -0.72800
H47         H  0.44927040  0.00310384  0.43295456     0.79200
H48         H  0.46956054  0.93933714  0.56434336     0.80300
H49         H  0.55465153  0.00210689  0.43444441     0.82500
H50         H  0.53198146  0.06221330  0.56912088     0.80100
H51         H  0.39903911  0.89739815  0.50552593     0.43200
H52         H  0.47024779  0.90007324  0.47675659     0.42100
H53         H  0.57619237  0.97288890  0.51049725     0.41800
H54         H  0.62244576  0.06692526  0.51164482     0.39800
H55         H  0.60155177  0.10511952  0.52230184     0.42900
H56         H  0.52872027  0.10444863  0.47416575     0.37700
H57         H  0.42641356  0.02883315  0.51340388     0.43800
H58         H  0.39503669  0.96683223  0.46648457     0.40200
H59         H  0.60698149  0.03469864  0.53116957     0.45100
H60         H  0.53075095  0.10333954  0.52964045     0.43800
H61         H  0.38032820  0.93404668  0.48308737     0.44000
H62         H  0.49858504  0.89766550  0.48064243     0.44300
O63         O  0.05367792  0.58158827  0.57960832    -0.74500
O64         O  0.03445217  0.54507972  0.63514664    -0.53400
C65         C  0.04868309  0.57216325  0.62282806     0.79200
O66         O  0.94775208  0.52717890  0.42134734    -0.59100
O67         O  0.97055658  0.51401948  0.36574524    -0.52200
C68         C  0.95343100  0.52363291  0.37795945     0.71200
O69         O  0.95069512  0.52854547  0.58402078    -0.73700
O70         O  0.97386757  0.51469740  0.63767392    -0.54300
C71         C  0.95715891  0.52504715  0.62697686     0.77200
O72         O  0.05948742  0.58026849  0.41865180    -0.58800
O73         O  0.03330742  0.54427317  0.36451500    -0.52000
C74         C  0.05225122  0.57074776  0.37568131     0.73800
Zr75       Zr  0.04690424  0.56097298  0.49969452     2.54700
O76         O  0.05371254  0.61020639  0.49568283    -0.79400
O77         O  0.09963101  0.58115056  0.50490201    -0.92800
Zr78       Zr  0.95955187  0.51853798  0.50210405     2.64700
O79         O  0.95607694  0.56295185  0.50632867    -0.97800
O80         O  0.90650706  0.48773927  0.50346792    -0.79800
O81         O  0.00366490  0.53999833  0.54609324    -0.83200
O82         O  0.00282713  0.54034161  0.45540914    -2.17900
O83         O  0.06070491  0.48153770  0.41822185    -0.66600
O84         O  0.03196743  0.48801543  0.36461667    -0.51100
C85         C  0.05223329  0.48225033  0.37549131     0.72200
O86         O  0.94856809  0.42170974  0.58105025    -0.59500
O87         O  0.97236790  0.45779364  0.63589352    -0.51500
C88         C  0.95506199  0.43091236  0.62424026     0.74000
O89         O  0.94304134  0.42221155  0.42069431    -0.70900
O90         O  0.96890097  0.45791532  0.36602659    -0.49600
C91         C  0.94992128  0.43148449  0.37751548     0.75400
O92         O  0.05871115  0.47694291  0.57866067    -0.66200
O93         O  0.03327601  0.48694718  0.63405820    -0.53400
C94         C  0.05139368  0.47860057  0.62179191     0.73800
Zr95       Zr  0.04586742  0.48523581  0.49900173     2.77500
O96         O  0.04381177  0.43801358  0.49566308    -0.97000
O97         O  0.09911557  0.51255728  0.50262938    -0.77800
Zr98       Zr  0.95814271  0.44235686  0.50095343     2.70100
O99         O  0.95385565  0.39417662  0.49702539    -0.79000
O100        O  0.90551344  0.42128058  0.51020701    -0.98100
Zr101      Zr  0.00335702  0.50140219  0.59033337     2.21500
Zr102      Zr  0.00160834  0.50135356  0.41042345     2.11100
O103        O  0.00159202  0.46294980  0.45477828    -2.46800
O104        O  0.00239200  0.46297230  0.54506028    -0.78800
O105        O  0.04661206  0.52336581  0.45292013    -0.71000
O106        O  0.95841375  0.48001352  0.54765890    -2.32000
O107        O  0.04772600  0.52363778  0.54582533    -2.28200
O108        O  0.95746193  0.47993086  0.45526808    -0.72800
H109        H  0.00308867  0.55524937  0.43506172     0.79200
H110        H  0.94189561  0.47186537  0.56908009     0.80300
H111        H  0.00118213  0.44813952  0.43396883     0.82500
H112        H  0.06459457  0.53193976  0.56652491     0.80100
H113        H  0.89926285  0.49917176  0.48594615     0.43200
H114        H  0.89861720  0.42364840  0.47862707     0.42100
H115        H  0.97289357  0.39739797  0.50905060     0.41800
H116        H  0.03348540  0.42888886  0.46556611     0.39800
H117        H  0.10459280  0.53249045  0.49146425     0.42900
H118        H  0.10552890  0.59305711  0.53437950     0.37700
H119        H  0.03464217  0.60724255  0.48432935     0.43800
H120        H  0.97343440  0.57787185  0.48872223     0.40200
H121        H  0.06430858  0.44297658  0.48993447     0.45100
H122        H  0.10781197  0.59571906  0.47881680     0.43800
H123        H  0.93918883  0.55905627  0.48595720     0.44000
H124        H  0.89787308  0.39992191  0.51322565     0.44300
O125        O  0.52867797  0.57945019  0.58436498    -0.74500
O126        O  0.51287680  0.54175244  0.63734569    -0.53400
C127        C  0.52388438  0.56896926  0.62697794     0.79200
O128        O  0.42220457  0.48047866  0.41915263    -0.59100
O129        O  0.45801242  0.49056629  0.36464719    -0.52200
C130        C  0.43141650  0.48208850  0.37617554     0.71200
O131        O  0.42117487  0.48089116  0.57977623    -0.73700
O132        O  0.45610363  0.48869682  0.63476807    -0.54300
C133        C  0.42990977  0.48150936  0.62285871     0.77200
O134        O  0.53303475  0.58285345  0.42285069    -0.58800
O135        O  0.51721514  0.54681079  0.36697049    -0.52000
C136        C  0.52923501  0.57389256  0.37935615     0.73800
Zr137      Zr  0.52155508  0.56134799  0.50258095     2.54700
O138        O  0.49824781  0.59127417  0.50148896    -0.79400
O139        O  0.57010419  0.60481916  0.50435813    -0.92800
Zr140      Zr  0.44228148  0.49075229  0.49966421     2.64700
O141        O  0.42685307  0.52727418  0.49646464    -0.97800
O142        O  0.39100525  0.45251003  0.50123918    -0.79800
O143        O  0.48105149  0.52585673  0.54758276    -0.83200
O144        O  0.48186448  0.52729620  0.45485115    -2.17900
O145        O  0.57820026  0.51741496  0.42109477    -0.66600
O146        O  0.54390978  0.51206905  0.36648123    -0.51100
C147        C  0.56960322  0.51725270  0.37808464     0.72200
O148        O  0.46921494  0.41819000  0.57785368    -0.59500
O149        O  0.48046062  0.45354294  0.63404137    -0.51500
C150        C  0.47075167  0.42682915  0.62122146     0.74000
O151        O  0.46894814  0.42050325  0.41663663    -0.70900
O152        O  0.48630026  0.45844997  0.36387244    -0.49600
C153        C  0.47425416  0.43108133  0.37407898     0.75400
O154        O  0.57558501  0.51374672  0.58218132    -0.66200
O155        O  0.54052115  0.50638712  0.63643609    -0.53400
C156        C  0.56646916  0.51215475  0.62519700     0.73800
Zr157      Zr  0.55752594  0.51022283  0.50119576     2.77500
O158        O  0.57814872  0.47791297  0.49950239    -0.97000
O159        O  0.60601465  0.55359320  0.50496911    -0.77800
Zr160      Zr  0.47842906  0.43943010  0.49803643     2.70100
O161        O  0.50422251  0.41190802  0.49649246    -0.79000
O162        O  0.43046233  0.39521919  0.50000103    -0.98100
Zr163      Zr  0.49881761  0.49875125  0.59006866     2.21500
Zr164      Zr  0.50078324  0.50181343  0.41073473     2.11100
O165        O  0.51875291  0.47508414  0.45355758    -2.46800
O166        O  0.51789016  0.47352145  0.54595825    -0.78800
O167        O  0.54063252  0.53703017  0.45656487    -0.71000
O168        O  0.45919355  0.46367750  0.54340782    -2.32000
O169        O  0.53958313  0.53556990  0.54728821    -2.28200
O170        O  0.46015990  0.46521195  0.45376581    -0.72800
H171        H  0.47509880  0.53727647  0.43403473     0.79200
H172        H  0.44350938  0.44924176  0.56286462     0.80300
H173        H  0.52590533  0.46565422  0.43228056     0.82500
H174        H  0.55471289  0.54901834  0.56863197     0.80100
H175        H  0.39148463  0.43399855  0.49846837     0.43200
H176        H  0.41922722  0.39799536  0.47429314     0.42100
H177        H  0.48962524  0.39228895  0.48435738     0.41800
H178        H  0.56613166  0.46214263  0.52245699     0.39800
H179        H  0.60248719  0.56946066  0.51579538     0.42900
H180        H  0.57966754  0.60240059  0.53295650     0.37700
H181        H  0.48778988  0.58716602  0.53228907     0.43800
H182        H  0.40592437  0.51639334  0.50562337     0.40200
H183        H  0.57259794  0.46822397  0.46798209     0.45100
H184        H  0.56656805  0.62109079  0.51249813     0.43800
H185        H  0.43679012  0.54039355  0.52381789     0.44000
H186        H  0.43387587  0.37944418  0.48825665     0.44300
O187        O  0.78852121  0.49093872  0.99779504    -0.74500
O188        O  0.83614731  0.52700626  0.00692607    -0.53400
C189        C  0.81612692  0.50005306  0.00132723     0.79200
O190        O  0.74026634  0.56367677  0.86933380    -0.59100
O191        O  0.71214921  0.56800871  0.92672457    -0.52200
C192        C  0.71701807  0.56360139  0.88353716     0.71200
O193        O  0.82625913  0.56480453  0.87129025    -0.73700
O194        O  0.85735819  0.56796143  0.93020501    -0.54300
C195        C  0.84934664  0.56483014  0.88630929     0.77200
O196        O  0.70311845  0.49138270  0.01105071    -0.58800
O197        O  0.69173351  0.52759543  0.00092394    -0.52000
C198        C  0.68479964  0.50066496  0.00652914     0.73800
Zr199      Zr  0.75611401  0.51132125  0.00828350     2.54700
O200        O  0.73123243  0.46701501  0.96023326    -0.79400
O201        O  0.74517950  0.48292133  0.08150852    -0.92800
Zr202      Zr  0.78572994  0.56965248  0.90220171     2.64700
O203        O  0.76835950  0.53227376  0.84023534    -0.97800
O204        O  0.80435231  0.60837846  0.84246307    -0.79800
O205        O  0.79485776  0.53986375  0.95474574    -0.83200
O206        O  0.74639961  0.53961343  0.95358780    -2.17900
O207        O  0.74207734  0.56964978  0.13260696    -0.66600
O208        O  0.71278252  0.57010021  0.07340606    -0.51100
C209        C  0.71838366  0.56818268  0.11740898     0.72200
O210        O  0.87138027  0.65516656  0.99569692    -0.59500
O211        O  0.88127001  0.61766374  0.99922593    -0.51500
C212        C  0.88924363  0.64503699  0.99665574     0.74000
O213        O  0.78463263  0.65576072  0.99304468    -0.70900
O214        O  0.73743729  0.61807948  0.99757338    -0.49600
C215        C  0.75665433  0.64551186  0.99543950     0.75400
O216        O  0.82906266  0.57466549  0.13505963    -0.66200
O217        O  0.85850183  0.57281972  0.07761948    -0.53400
C218        C  0.85130962  0.57274590  0.12143661     0.73800
Zr219      Zr  0.78814423  0.57716116  0.10069348     2.77500
O220        O  0.80699710  0.62166444  0.14829457    -0.97000
O221        O  0.77454336  0.54770441  0.17290611    -0.77800
Zr222      Zr  0.81779671  0.63511927  0.99565123     2.70100
O223        O  0.83632301  0.67400370  0.05511268    -0.79000
O224        O  0.83684721  0.66967683  0.92964701    -0.98100
Zr225      Zr  0.83513331  0.57257123  0.00300420     2.21500
Zr226      Zr  0.73827533  0.57273398  0.00004452     2.11100
O227        O  0.77829913  0.60633886  0.04832264    -2.46800
O228        O  0.82803968  0.60644659  0.04963047    -0.78800
O229        O  0.74740235  0.54373536  0.05454681    -0.71000
O230        O  0.82646814  0.60246250  0.94895801    -2.32000
O231        O  0.79618459  0.54345757  0.05627920    -2.28200
O232        O  0.77723842  0.60284351  0.94711280    -0.72800
H233        H  0.72930857  0.52649960  0.93522911     0.79200
H234        H  0.84322282  0.61348318  0.92861294     0.80300
H235        H  0.77312218  0.61858311  0.06666303     0.82500
H236        H  0.80108043  0.53187594  0.07692260     0.80100
H237        H  0.82536169  0.62099890  0.85018717     0.43200
H238        H  0.81925924  0.66722946  0.91284260     0.42100
H239        H  0.81911129  0.66971541  0.07494321     0.41800
H240        H  0.78937642  0.62115197  0.16167204     0.39800
H241        H  0.75856711  0.52817124  0.16282172     0.42900
H242        H  0.75676627  0.47287013  0.07944229     0.37700
H243        H  0.73859222  0.47363873  0.92753541     0.43800
H244        H  0.74805940  0.51774748  0.84956442     0.40200
H245        H  0.81642611  0.61810795  0.17598067     0.45100
H246        H  0.72460378  0.46702517  0.07784307     0.43800
H247        H  0.76620379  0.54197251  0.81155336     0.44000
H248        H  0.84541662  0.68921897  0.94489232     0.44300
O249        O  0.70954693  0.21610285  0.00859205    -0.74500
O250        O  0.69468303  0.16734108  0.00605291    -0.53400
C251        C  0.68962102  0.18888039  0.00908932     0.79200
O252        O  0.83127206  0.25908556  0.87095153    -0.59100
O253        O  0.86397671  0.28672262  0.92844290    -0.52200
C254        C  0.85497991  0.28183884  0.88503561     0.71200
O255        O  0.74261559  0.17829243  0.87023471    -0.73700
O256        O  0.71396236  0.14577997  0.92713207    -0.54300
C257        C  0.71899078  0.15538447  0.88410234     0.77200
O258        O  0.79650608  0.29832359  0.01330836    -0.58800
O259        O  0.84384062  0.30915121  0.00417432    -0.52000
C260        C  0.82413869  0.31649735  0.01035448     0.73800
Zr261      Zr  0.76242851  0.24612158  0.00639249     2.54700
O262        O  0.74549589  0.26825294  0.94751851    -0.79400
O263        O  0.74736522  0.26481761  0.07350597    -0.92800
Zr264      Zr  0.78992699  0.21444769  0.90232592     2.64700
O265        O  0.77441988  0.23086304  0.83278598    -0.97800
O266        O  0.80713427  0.18934115  0.84998224    -0.79800
O267        O  0.75078818  0.20699239  0.95295027    -0.83200
O268        O  0.80058267  0.25461342  0.95314049    -2.17900
O269        O  0.83208076  0.25530976  0.13456279    -0.66600
O270        O  0.86195399  0.28559197  0.07604671    -0.51100
C271        C  0.85434652  0.27926211  0.11986750     0.72200
O272        O  0.78498558  0.12696449  0.99992712    -0.59500
O273        O  0.73808105  0.11856686  0.99771684    -0.51500
C274        C  0.75694415  0.10981625  0.99849969     0.74000
O275        O  0.87330052  0.21102462  0.99965544    -0.70900
O276        O  0.88529342  0.25911954  0.00530784    -0.49600
C277        C  0.89195229  0.23870223  0.00410878     0.75400
O278        O  0.74630726  0.17036587  0.13239201    -0.66200
O279        O  0.71567509  0.14144206  0.07377149    -0.53400
C280        C  0.72223567  0.14819302  0.11777689     0.73800
Zr281      Zr  0.79154606  0.21088780  0.10065773     2.77500
O282        O  0.81188615  0.18764090  0.15044789    -0.97000
O283        O  0.77607541  0.22692556  0.17056651    -0.77800
Zr284      Zr  0.81941439  0.18017794  0.99666362     2.70100
O285        O  0.83900613  0.15880654  0.05214524    -0.79000
O286        O  0.83335425  0.16284949  0.92639751    -0.98100
Zr287      Zr  0.74022749  0.16564008  0.00091460     2.21500
Zr288      Zr  0.84051500  0.26117450  0.00162084     2.11100
O289        O  0.83083059  0.21973837  0.04972776    -2.46800
O290        O  0.78012061  0.17116616  0.04878609    -0.78800
O291        O  0.80188386  0.25264600  0.05447515    -0.71000
O292        O  0.77900659  0.17271504  0.94868350    -2.32000
O293        O  0.75150849  0.20503368  0.05428430    -2.28200
O294        O  0.83066354  0.22178484  0.94859516    -0.72800
H295        H  0.80550494  0.27199127  0.93477460     0.79200
H296        H  0.77287979  0.15590694  0.92817275     0.80300
H297        H  0.84751520  0.22378101  0.06921375     0.82500
H298        H  0.73512374  0.20085256  0.07462722     0.80100
H299        H  0.82061849  0.20466738  0.82754668     0.43200
H300        H  0.84889531  0.15900123  0.93773334     0.42100
H301        H  0.82457394  0.15104126  0.07842579     0.41800
H302        H  0.80819327  0.19163203  0.18341305     0.39800
H303        H  0.76207016  0.23262645  0.15807010     0.42900
H304        H  0.73205390  0.24719522  0.09007091     0.37700
H305        H  0.74178520  0.28211271  0.96592531     0.43800
H306        H  0.77863039  0.25092022  0.84083868     0.40200
H307        H  0.79839195  0.16633714  0.14608382     0.45100
H308        H  0.73674938  0.27395376  0.05899454     0.43800
H309        H  0.78862053  0.23361965  0.80743629     0.44000
H310        H  0.81643976  0.14315283  0.91975828     0.44300
O311        O  0.29315888  0.78849915  0.97300417    -0.74500
O312        O  0.30633265  0.83647959  0.98454778    -0.53400
C313        C  0.31232987  0.81596921  0.97647546     0.79200
O314        O  0.16322732  0.74823184  0.86343653    -0.59100
O315        O  0.13582686  0.71625366  0.92188574    -0.52200
C316        C  0.14126220  0.72393244  0.87797791     0.71200
O317        O  0.25208121  0.83091482  0.86207124    -0.73700
O318        O  0.28308233  0.86027894  0.92008560    -0.54300
C319        C  0.27629631  0.85310386  0.87620180     0.77200
O320        O  0.20755567  0.70339251  0.97450341    -0.58800
O321        O  0.16017898  0.69147130  0.98734757    -0.52000
C322        C  0.18008968  0.68465450  0.97904166     0.73800
Zr323      Zr  0.24040475  0.75623541  0.98023102     2.54700
O324        O  0.25513812  0.74033279  0.90925984    -0.79400
O325        O  0.26022408  0.73483986  0.03524800    -0.92800
Zr326      Zr  0.20641187  0.79153692  0.89514341     2.64700
O327        O  0.21970065  0.77750532  0.82065811    -0.97800
O328        O  0.18535478  0.81638723  0.85106367    -0.79800
O329        O  0.24820908  0.79809972  0.93718639    -0.83200
O330        O  0.19903728  0.74919446  0.93693574    -2.17900
O331        O  0.17497430  0.73958420  0.12421452    -0.66600
O332        O  0.14147379  0.71170863  0.06806645    -0.51100
C333        C  0.15116634  0.71671932  0.11106853     0.72200
O334        O  0.21362203  0.87243129  0.00977623    -0.59500
O335        O  0.26085666  0.88185430  0.00584971    -0.51500
C336        C  0.24161762  0.88993209  0.01025802     0.74000
O337        O  0.12697909  0.78653933  0.00617054    -0.70900
O338        O  0.11644062  0.73882552  0.00276076    -0.49600
C339        C  0.10894287  0.75856479  0.00576196     0.75400
O340        O  0.26133591  0.82263166  0.12399827    -0.66200
O341        O  0.28866165  0.85580736  0.06692371    -0.53400
C342        C  0.28443411  0.84603156  0.10997728     0.73800
Zr343      Zr  0.21487363  0.78442701  0.09196425     2.77500
O344        O  0.19791784  0.80543420  0.15282339    -0.97000
O345        O  0.23168410  0.76319244  0.15253237    -0.77800
Zr346      Zr  0.18069125  0.81898823  0.00560418     2.70100
O347        O  0.16563175  0.83488328  0.07620912    -0.79000
O348        O  0.16201560  0.84075146  0.94909331    -0.98100
Zr349      Zr  0.26024888  0.83600865  0.99400743     2.21500
Zr350      Zr  0.16189600  0.73862000  0.99461834     2.11100
O351        O  0.17273876  0.77711537  0.05016296    -2.46800
O352        O  0.22253637  0.82654958  0.04976197    -0.78800
O353        O  0.20356924  0.74553233  0.03785525    -0.71000
O354        O  0.21886628  0.83031847  0.94980198    -2.32000
O355        O  0.25264492  0.79384543  0.03707996    -2.28200
O356        O  0.16835426  0.78027917  0.95046153    -0.72800
H357        H  0.19339108  0.73305111  0.91512305     0.79200
H358        H  0.22364468  0.84805542  0.93259246     0.80300
H359        H  0.15673135  0.77155002  0.07217278     0.82500
H360        H  0.27013194  0.79731888  0.05367173     0.80100
H361        H  0.20101471  0.82958300  0.82884574     0.43200
H362        H  0.15087375  0.82503321  0.92555852     0.42100
H363        H  0.15224142  0.84146852  0.06405486     0.41800
H364        H  0.18287607  0.78836285  0.17084506     0.39800
H365        H  0.23916357  0.75221978  0.13426158     0.42900
H366        H  0.26301121  0.72075587  0.01573822     0.37700
H367        H  0.26372476  0.72864672  0.92149869     0.43800
H368        H  0.21518226  0.75704131  0.82573151     0.40200
H369        H  0.21454217  0.81534260  0.17525305     0.45100
H370        H  0.24367606  0.72236379  0.05663918     0.43800
H371        H  0.20496149  0.77599651  0.79726807     0.44000
H372        H  0.14688202  0.84269278  0.96693632     0.44300
O373        O  0.56685633  0.82513350  0.86849449    -0.74500
O374        O  0.56915815  0.85664194  0.92604131    -0.53400
C375        C  0.56643731  0.84820486  0.88248666     0.79200
O376        O  0.49469794  0.70252114  0.01193717    -0.59100
O377        O  0.53093482  0.69117577  0.00471668    -0.52200
C378        C  0.50396435  0.68412212  0.01036126     0.71200
O379        O  0.49132064  0.78544432  0.00394638    -0.73700
O380        O  0.52573147  0.83387349  0.00068774    -0.54300
C381        C  0.49894308  0.81276969  0.00263249     0.77200
O382        O  0.57086251  0.74183462  0.86854487    -0.58800
O383        O  0.57276156  0.71301545  0.92728656    -0.52000
C384        C  0.57058130  0.71856743  0.88339262     0.73800
Zr385      Zr  0.57311284  0.78574507  0.90064533     2.54700
O386        O  0.53856333  0.76667544  0.83471150    -0.79400
O387        O  0.61409019  0.80770851  0.84517284    -0.92800
Zr388      Zr  0.51356622  0.75478077  0.00379545     2.64700
O389        O  0.47663829  0.73252643  0.94165656    -0.97800
O390        O  0.47715220  0.73791447  0.06694564    -0.79800
O391        O  0.54142682  0.79377887  0.95040565    -0.83200
O392        O  0.54315357  0.74572922  0.95136941    -2.17900
O393        O  0.65812911  0.78615180  0.99058383    -0.66600
O394        O  0.62131895  0.73838343  0.99402603    -0.51100
C395        C  0.64846445  0.75814526  0.99043641     0.72200
O396        O  0.57609393  0.83152318  0.13134959    -0.59500
O397        O  0.57096521  0.85822613  0.07221175    -0.51500
C398        C  0.57298555  0.85293949  0.11631300     0.74000
O399        O  0.57461238  0.74508636  0.13243156    -0.70900
O400        O  0.57601956  0.71532218  0.07485554    -0.49600
C401        C  0.57433215  0.72166149  0.11852567     0.75400
O402        O  0.65558963  0.87204120  0.00187031    -0.66200
O403        O  0.61732093  0.88080476  0.00128854    -0.53400
C404        C  0.64477641  0.88932888  0.00318838     0.73800
Zr405      Zr  0.63668507  0.81880873  0.99559230     2.77500
O406        O  0.67679570  0.83753556  0.05260970    -0.97000
O407        O  0.66860121  0.83912468  0.92659488    -0.77800
Zr408      Zr  0.57766579  0.78914226  0.09928784     2.70100
O409        O  0.61873394  0.80964458  0.15452859    -0.79000
O410        O  0.54338338  0.77387870  0.16557027    -0.98100
Zr411      Zr  0.57241119  0.83442831  0.99939757     2.21500
Zr412      Zr  0.57581885  0.73859006  0.00057260     2.11100
O413        O  0.60812565  0.77960277  0.04884794    -2.46800
O414        O  0.60647196  0.82833872  0.04716337    -0.78800
O415        O  0.60566514  0.77769013  0.94769064    -0.71000
O416        O  0.54379836  0.79536286  0.05260074    -2.32000
O417        O  0.60416944  0.82701286  0.94767947    -2.28200
O418        O  0.54575898  0.74751920  0.05307237    -0.72800
H419        H  0.53071229  0.72839823  0.93287489     0.79200
H420        H  0.53171182  0.79984645  0.07279065     0.80300
H421        H  0.62066262  0.77505572  0.06776509     0.82500
H422        H  0.61523576  0.84399808  0.92763881     0.80100
H423        H  0.48704927  0.73505389  0.09467205     0.43200
H424        H  0.52896687  0.75304088  0.15906942     0.42100
H425        H  0.63267733  0.82911579  0.14106670     0.41800
H426        H  0.67193723  0.82083057  0.07417552     0.39800
H427        H  0.66867491  0.82213156  0.91162766     0.42900
H428        H  0.62061967  0.82891728  0.84524560     0.37700
H429        H  0.51934759  0.75405577  0.85002486     0.43800
H430        H  0.45856512  0.73039306  0.95617040     0.40200
H431        H  0.69382432  0.83996597  0.03402951     0.45100
H432        H  0.60502119  0.80076325  0.81347162     0.43800
H433        H  0.48236714  0.74819682  0.91756690     0.44000
H434        H  0.55466393  0.77334993  0.19335942     0.44300
O435        O  0.21256177  0.50744349  0.99568072    -0.74500
O436        O  0.16447354  0.47182077  0.99663794    -0.53400
C437        C  0.18498638  0.49884542  0.99570962     0.79200
O438        O  0.25782220  0.42766936  0.86837812    -0.59100
O439        O  0.28823772  0.42803777  0.92613416    -0.52200
C440        C  0.28166965  0.42905572  0.88227567     0.71200
O441        O  0.17307417  0.42801970  0.86663272    -0.73700
O442        O  0.14357788  0.42876704  0.92513968    -0.54300
C443        C  0.15064045  0.42932555  0.88114693     0.77200
O444        O  0.29816024  0.50678825  0.99636253    -0.58800
O445        O  0.31003412  0.47071866  0.00021668    -0.52000
C446        C  0.31682302  0.49778182  0.99743555     0.73800
Zr447      Zr  0.24532831  0.48727144  0.99906778     2.54700
O448        O  0.26467635  0.52625538  0.93983111    -0.79400
O449        O  0.26337969  0.52249221  0.06425908    -0.92800
Zr450      Zr  0.21374460  0.42471340  0.90012307     2.64700
O451        O  0.22884625  0.45870199  0.83332613    -0.97800
O452        O  0.19371615  0.38339385  0.84512849    -0.79800
O453        O  0.20570298  0.45691755  0.94837319    -0.83200
O454        O  0.25414955  0.45671049  0.94835174    -2.17900
O455        O  0.25692681  0.42688475  0.13404761    -0.66600
O456        O  0.28694979  0.42780303  0.07472481    -0.51100
C457        C  0.28058441  0.42819561  0.11890604     0.72200
O458        O  0.12939977  0.34368310  0.00155097    -0.59500
O459        O  0.11961908  0.38124779  0.00031049    -0.51500
C460        C  0.11153471  0.35378853  0.00110042     0.74000
O461        O  0.21576051  0.34284970  0.99732741    -0.70900
O462        O  0.26300327  0.38039513  0.99838291    -0.49600
C463        C  0.24373846  0.35302180  0.99718118     0.75400
O464        O  0.17291462  0.42852939  0.13252602    -0.66200
O465        O  0.14404931  0.42976494  0.07319067    -0.53400
C466        C  0.15083847  0.43032812  0.11734351     0.73800
Zr467      Zr  0.21400435  0.42560859  0.09916505     2.77500
O468        O  0.19339887  0.38618181  0.15767960    -0.97000
O469        O  0.23344800  0.46384105  0.15967702    -0.77800
Zr470      Zr  0.18283474  0.36360131  0.99956462     2.70100
O471        O  0.16409583  0.32513906  0.05964854    -0.79000
O472        O  0.16310937  0.32847250  0.93438444    -0.98100
Zr473      Zr  0.16595643  0.42644457  0.99923056     2.21500
Zr474      Zr  0.26288616  0.42587739  0.99977349     2.11100
O475        O  0.22290212  0.39422369  0.05012046    -2.46800
O476        O  0.17366351  0.39452894  0.04998131    -0.78800
O477        O  0.25449330  0.45705321  0.05041646    -0.71000
O478        O  0.17341773  0.39414263  0.94906308    -2.32000
O479        O  0.20576081  0.45737391  0.04986605    -2.28200
O480        O  0.22312929  0.39385167  0.94939274    -0.72800
H481        H  0.27093412  0.46884012  0.92866801     0.79200
H482        H  0.15644830  0.38237218  0.92953765     0.80300
H483        H  0.22795768  0.38231687  0.06961693     0.82500
H484        H  0.20123479  0.46981412  0.06905801     0.80100
H485        H  0.20817380  0.37662040  0.84493638     0.43200
H486        H  0.17892058  0.33611425  0.91029609     0.42100
H487        H  0.15924360  0.30703586  0.04180471     0.41800
H488        H  0.17195695  0.37795621  0.15549201     0.39800
H489        H  0.23841163  0.48206644  0.14214336     0.42900
H490        H  0.24711207  0.52608565  0.07188439     0.37700
H491        H  0.26020859  0.51584337  0.90892145     0.43800
H492        H  0.24981054  0.47288786  0.83906132     0.40200
H493        H  0.19669217  0.37070295  0.14414460     0.45100
H494        H  0.27851761  0.54101631  0.04954572     0.43800
H495        H  0.22862836  0.44705983  0.80548549     0.44000
H496        H  0.16244752  0.31056293  0.94688347     0.44300
O497        O  0.42691209  0.17168336  0.86876393    -0.74500
O498        O  0.42875907  0.14288799  0.92758654    -0.53400
C499        C  0.42906496  0.14968121  0.88351899     0.79200
O500        O  0.50447955  0.29944012  0.98962041    -0.59100
O501        O  0.46758258  0.31003207  0.99492597    -0.52200
C502        C  0.49476892  0.31743828  0.99127663     0.71200
O503        O  0.50798399  0.21666861  0.99144173    -0.73700
O504        O  0.47443756  0.16810486  0.99843919    -0.54300
C505        C  0.50089028  0.18957101  0.99431517     0.77200
O506        O  0.41921340  0.25293249  0.86434297    -0.58800
O507        O  0.42076918  0.28397597  0.92232854    -0.52000
C508        C  0.41990812  0.27654153  0.87842931     0.73800
Zr509      Zr  0.42082403  0.21145851  0.89963909     2.54700
O510        O  0.45351628  0.22915925  0.83129524    -0.79400
O511        O  0.37832418  0.18608089  0.84782467    -0.92800
Zr512      Zr  0.48575169  0.24714366  0.99331588     2.64700
O513        O  0.52212667  0.26529485  0.92993329    -0.97800
O514        O  0.52310481  0.26817412  0.05509646    -0.79800
O515        O  0.45521853  0.20576157  0.94605504    -0.83200
O516        O  0.45300102  0.25367237  0.94431391    -2.17900
O517        O  0.34070754  0.21244598  0.00304494    -0.66600
O518        O  0.37659790  0.26078084  0.00275189    -0.51100
C519        C  0.34967799  0.24022371  0.00375892     0.72200
O520        O  0.43104808  0.17644015  0.13323227    -0.59500
O521        O  0.43296327  0.14709276  0.07547014    -0.51500
C522        C  0.43357492  0.15454646  0.11928378     0.74000
O523        O  0.43144583  0.26166980  0.12744179    -0.70900
O524        O  0.42724554  0.28944647  0.06946639    -0.49600
C525        C  0.43079996  0.28450609  0.11311240     0.75400
O526        O  0.34485825  0.12756172  0.00644345    -0.66200
O527        O  0.38365945  0.11977184  0.00491917    -0.53400
C528        C  0.35605804  0.11059388  0.00613298     0.73800
Zr529      Zr  0.36295921  0.18088895  0.00432563     2.77500
O530        O  0.32807171  0.16227388  0.06995558    -0.97000
O531        O  0.32407847  0.15895572  0.94523825    -0.77800
Zr532      Zr  0.42774456  0.21670467  0.09788485     2.70100
O533        O  0.39152659  0.19978612  0.16150289    -0.79000
O534        O  0.46802190  0.23624302  0.15466432    -0.98100
Zr535      Zr  0.42764558  0.16693174  0.00051901     2.21500
Zr536      Zr  0.42287262  0.26224461  0.99735166     2.11100
O537        O  0.39393160  0.22291959  0.05109930    -2.46800
O538        O  0.39629612  0.17441525  0.05282919    -0.78800
O539        O  0.39043970  0.22042195  0.95078785    -0.71000
O540        O  0.45884381  0.20853267  0.04748832    -2.32000
O541        O  0.39307711  0.17192952  0.95211071    -2.28200
O542        O  0.45634406  0.25632832  0.04600752    -0.72800
H543        H  0.46395844  0.27015707  0.92331946     0.79200
H544        H  0.47212837  0.20509816  0.06641792     0.80300
H545        H  0.38232988  0.22795908  0.07147545     0.82500
H546        H  0.38128671  0.15434373  0.93376399     0.80100
H547        H  0.52371237  0.25128090  0.06933998     0.43200
H548        H  0.48116584  0.25672861  0.14429050     0.42100
H549        H  0.37782267  0.20665375  0.15240621     0.41800
H550        H  0.33144576  0.14739148  0.08570739     0.39800
H551        H  0.30657006  0.15700740  0.96162640     0.42900
H552        H  0.37957257  0.20133982  0.82578126     0.37700
H553        H  0.47335153  0.24027370  0.84535460     0.43800
H554        H  0.51682554  0.27720498  0.90936749     0.40200
H555        H  0.33545700  0.17867084  0.09300831     0.45100
H556        H  0.36139596  0.18152621  0.86854344     0.43800
H557        H  0.54055899  0.27977015  0.94569443     0.44000
H558        H  0.45935919  0.23802347  0.18486764     0.44300
C559        C  0.29691446  0.32431448  0.99278226    -0.27500
C560        C  0.27851901  0.29414912  0.99921910     0.06200
C561        C  0.24811924  0.28277659  0.00257703     0.25800
C562        C  0.23660403  0.30178520  0.00105618    -0.11900
C563        C  0.25527095  0.33231212  0.99601331    -0.25900
C564        C  0.28568729  0.34319794  0.99110669     0.36600
C565        C  0.29232294  0.27580930  0.00483045     0.06200
F566        F  0.22978311  0.25360235  0.00910024    -0.19700
H567        H  0.21320185  0.29268364  0.00481986     0.16000
F568        F  0.30502455  0.37223082  0.98519050    -0.23400
H569        H  0.32037099  0.33341584  0.98961967     0.17800
C570        C  0.28775638  0.25387462  0.97168761     0.25800
C571        C  0.30532738  0.24077771  0.97303034    -0.11900
C572        C  0.32789877  0.24989970  0.00678521    -0.25900
C573        C  0.33168509  0.27109776  0.04076801     0.36700
C574        C  0.31384682  0.28361754  0.04003721    -0.27600
F575        F  0.26793182  0.24676207  0.93608215    -0.19700
H576        H  0.30249685  0.22485719  0.94605681     0.16000
F577        F  0.35336599  0.28045142  0.07374752    -0.23400
H578        H  0.31779290  0.30060126  0.06566741     0.17800
C579        C  0.43229434  0.61613243  0.03906958    -0.27500
C580        C  0.43368708  0.59503253  0.01063170     0.06200
C581        C  0.45977082  0.60233170  0.98642590     0.25800
C582        C  0.48362798  0.63108443  0.98876882    -0.11900
C583        C  0.48138514  0.65278590  0.01461907    -0.25900
C584        C  0.45574749  0.64472493  0.04101428     0.36600
C585        C  0.40604513  0.56778618  0.00050809     0.06200
F586        F  0.46143949  0.58231609  0.95814667    -0.19700
H587        H  0.50308011  0.63680218  0.96803756     0.16000
F588        F  0.45281035  0.66477450  0.06725592    -0.23400
H589        H  0.41224433  0.61080154  0.05772753     0.17800
C590        C  0.39839218  0.54119457  0.02348853     0.25800
C591        C  0.36955617  0.51757440  0.02043494    -0.11900
C592        C  0.34813785  0.52058557  0.99515617    -0.25900
C593        C  0.35656487  0.54671881  0.96995030     0.36700
C594        C  0.38520460  0.56996331  0.97265839    -0.27600
F595        F  0.41819444  0.53872527  0.05103843    -0.19700
H596        H  0.36360909  0.49760509  0.03990936     0.16000
F597        F  0.33690164  0.55014522  0.94358820    -0.23400
H598        H  0.39085549  0.59036275  0.95474661     0.17800
C599        C  0.29286307  0.96920595  0.04217105    -0.27500
C600        C  0.28150648  0.98384406  0.01563776     0.06200
C601        C  0.25483299  0.96712049  0.99119113     0.25800
C602        C  0.24069782  0.93628958  0.99170303    -0.11900
C603        C  0.25322194  0.92186125  0.01596815    -0.25900
C604        C  0.27899006  0.93866376  0.04239187     0.36600
C605        C  0.29934023  0.01629015  0.01085676     0.06200
F606        F  0.24351809  0.98050501  0.96432942    -0.19700
H607        H  0.22092162  0.92378975  0.97097355     0.16000
F608        F  0.29113842  0.92551348  0.06783079    -0.23400
H609        H  0.31311225  0.98158152  0.06183580     0.17800
C610        C  0.28814555  0.03493689  0.02146225     0.25800
C611        C  0.30641022  0.06557487  0.01925385    -0.11900
C612        C  0.33618082  0.07812557  0.00681034    -0.25900
C613        C  0.34703812  0.05914887  0.99555927     0.36700
C614        C  0.32880357  0.02880143  0.99751185    -0.27600
F615        F  0.25996844  0.02360574  0.03584494    -0.19700
H616        H  0.29739767  0.07945927  0.02834332     0.16000
F617        F  0.37535797  0.06970268  0.98250866    -0.23400
H618        H  0.33786561  0.01488994  0.98879974     0.17800
C619        C  0.14663577  0.60318367  0.00586775    -0.27500
C620        C  0.16453283  0.59634987  0.97799045     0.06200
C621        C  0.18433712  0.61735455  0.94593271     0.25800
C622        C  0.18798285  0.64550660  0.94467672    -0.11900
C623        C  0.17165950  0.65324493  0.97486830    -0.25900
C624        C  0.14995877  0.63141207  0.00408898     0.36600
C625        C  0.16677641  0.56988658  0.98771734     0.06200
F626        F  0.20149424  0.61109655  0.91792391    -0.19700
H627        H  0.20450175  0.66170155  0.92130379     0.16000
F628        F  0.13369057  0.63797269  0.03366011    -0.23400
H629        H  0.13139072  0.58727590  0.03101266     0.17800
C630        C  0.19212772  0.57342524  0.01005397     0.25800
C631        C  0.19719681  0.54995206  0.01362433    -0.11900
C632        C  0.17704833  0.52223076  0.99527354    -0.25900
C633        C  0.15067025  0.51811630  0.97535927     0.36700
C634        C  0.14569642  0.54193928  0.97139396    -0.27600
F635        F  0.21255224  0.60003524  0.02712180    -0.19700
H636        H  0.21734210  0.55369069  0.03014349     0.16000
F637        F  0.13044716  0.49161547  0.95771441    -0.23400
H638        H  0.12600269  0.53885574  0.95408091     0.17800
C639        C  0.45431018  0.85125674  0.98519631    -0.27500
C640        C  0.42575546  0.82757491  0.99138357     0.06200
C641        C  0.42188995  0.80040608  0.00619671     0.25800
C642        C  0.44590541  0.79643893  0.01176135    -0.11900
C643        C  0.47455533  0.81940060  0.00256303    -0.25900
C644        C  0.47862797  0.84728750  0.99079332     0.36600
C645        C  0.39953988  0.82996002  0.98032544     0.06200
F646        F  0.39463615  0.77738345  0.01441277    -0.19700
H647        H  0.44181039  0.77489272  0.02215992     0.16000
F648        F  0.50583447  0.87036607  0.98288868    -0.23400
H649        H  0.45769342  0.87247128  0.97431094     0.17800
C650        C  0.39268596  0.84856960  0.00630117     0.25800
C651        C  0.36475333  0.84552765  0.00235331    -0.11900
C652        C  0.34340326  0.82380474  0.97271032    -0.25900
C653        C  0.35130272  0.80706108  0.94374466     0.36700
C654        C  0.37911711  0.81026226  0.94747296    -0.27600
F655        F  0.41205524  0.86795882  0.03812628    -0.19700
H656        H  0.35918448  0.85871411  0.02491781     0.16000
F657        F  0.33169660  0.78662840  0.91330878    -0.23400
H658        H  0.38421967  0.79610819  0.92651878     0.17800
C659        C  0.74508866  0.03304714  0.02113966    -0.27500
C660        C  0.71770630  0.01564738  0.99933017     0.06200
C661        C  0.70496887  0.02947039  0.97405752     0.25800
C662        C  0.71832283  0.05997454  0.97323815    -0.11900
C663        C  0.74497934  0.07757558  0.99689085    -0.25900
C664        C  0.75880050  0.06384553  0.01972177     0.36600
C665        C  0.70100773  0.98328733  0.00533558     0.06200
F666        F  0.67927491  0.01333175  0.95051165    -0.19700
H667        H  0.70756464  0.06988859  0.95427820     0.16000
F668        F  0.78473536  0.08002572  0.04255083    -0.23400
H669        H  0.75530500  0.02279702  0.04067371     0.17800
C670        C  0.71210082  0.96521833  0.99041151     0.25800
C671        C  0.69417794  0.93453559  0.99136174    -0.11900
C672        C  0.66494218  0.92150599  0.00695040    -0.25900
C673        C  0.65453411  0.93981300  0.02415115     0.36700
C674        C  0.67242827  0.97021448  0.02338930    -0.27600
F675        F  0.73960492  0.97718631  0.97249693    -0.19700
H676        H  0.70279268  0.92104211  0.97807586     0.16000
F677        F  0.62685798  0.92846887  0.04123053    -0.23400
H678        H  0.66364430  0.98373810  0.03589287     0.17800
C679        C  0.97075001  0.28371596  0.04282518    -0.27500
C680        C  0.98530685  0.27594615  0.00907353     0.06200
C681        C  0.96851862  0.25243566  0.97785815     0.25800
C682        C  0.93773763  0.23866885  0.97826353    -0.11900
C683        C  0.92350198  0.24849148  0.00928050    -0.25900
C684        C  0.94030920  0.27043580  0.04273088     0.36600
C685        C  0.01761602  0.29488420  0.00402751     0.06200
F686        F  0.98181753  0.24426817  0.94478095    -0.19700
H687        H  0.92519552  0.22172109  0.95234311     0.16000
F688        F  0.92730822  0.27980967  0.07442237    -0.23400
H689        H  0.98315859  0.30123362  0.06798355     0.17800
C690        C  0.02972653  0.32536713  0.99923455     0.25800
C691        C  0.05997602  0.34393788  0.99794113    -0.11900
C692        C  0.07927292  0.33281671  0.00127953    -0.25900
C693        C  0.06715430  0.30210776  0.00481730     0.36700
C694        C  0.03657833  0.28336965  0.00599405    -0.27600
F695        F  0.01217297  0.33731202  0.99565604    -0.19700
H696        H  0.06821076  0.36727263  0.99452929     0.16000
F697        F  0.08469330  0.29015692  0.00803614    -0.23400
H698        H  0.02773174  0.25995284  0.00974767     0.17800
C699        C  0.62570300  0.20028787  0.03558870    -0.27500
C700        C  0.60266110  0.17660178  0.01188762     0.06200
C701        C  0.60742407  0.15498140  0.99137045     0.25800
C702        C  0.63546296  0.15801254  0.99256144    -0.11900
C703        C  0.65903775  0.18283186  0.01371948    -0.25900
C704        C  0.65353168  0.20346254  0.03662074     0.36600
C705        C  0.57531873  0.17727786  0.00371456     0.06200
F706        F  0.58554687  0.13214049  0.96743075    -0.19700
H707        H  0.63907554  0.14185363  0.97472092     0.16000
F708        F  0.67523187  0.22727452  0.05906942    -0.23400
H709        H  0.62234889  0.21706658  0.05180674     0.17800
C710        C  0.54817000  0.15574695  0.02204456     0.25800
C711        C  0.52339338  0.15892228  0.01708603    -0.11900
C712        C  0.52554145  0.18364977  0.99397237    -0.25900
C713        C  0.55263786  0.20446139  0.97405933     0.36700
C714        C  0.57712011  0.20127060  0.97916627    -0.27600
F715        F  0.54598323  0.13257870  0.04673069    -0.19700
H716        H  0.50291273  0.14275500  0.03305404     0.16000
F717        F  0.55573499  0.22828380  0.95014275    -0.23400
H718        H  0.59783772  0.21794082  0.96449547     0.17800
C719        C  0.96471536  0.71391111  0.00738136    -0.27500
C720        C  0.98310464  0.70231224  0.99790839     0.06200
C721        C  0.97043501  0.67270529  0.98458345     0.25800
C722        C  0.94010391  0.65479075  0.98290831    -0.11900
C723        C  0.92141963  0.66577219  0.99459851    -0.25900
C724        C  0.93408254  0.69582205  0.00584859     0.36600
C725        C  0.01532392  0.71997630  0.00474485     0.06200
F726        F  0.98750492  0.66093335  0.97373787    -0.19700
H727        H  0.93126074  0.63199543  0.97307503     0.16000
F728        F  0.91701562  0.70744569  0.01741351    -0.23400
H729        H  0.97405911  0.73667468  0.01776237     0.17800
C730        C  0.03283370  0.74625625  0.97970109     0.25800
C731        C  0.06356427  0.75998385  0.98201167    -0.11900
C732        C  0.07705661  0.74751804  0.00904727    -0.25900
C733        C  0.05938265  0.72219919  0.03607777     0.36700
C734        C  0.02896689  0.70881787  0.03415783    -0.27600
F735        F  0.02030384  0.75758773  0.95087639    -0.19700
H736        H  0.07674417  0.77939129  0.96074883     0.16000
F737        F  0.07155257  0.70990219  0.06359604    -0.23400
H738        H  0.01591140  0.68894583  0.05449717     0.17800
C739        C  0.70493371  0.67509199  0.01531959    -0.27500
C740        C  0.71933873  0.70236743  0.99233533     0.06200
C741        C  0.74742019  0.71214162  0.97329075     0.25800
C742        C  0.76011154  0.69411446  0.97530547    -0.11900
C743        C  0.74500865  0.66615799  0.99656955    -0.25900
C744        C  0.71756113  0.65729681  0.01783145     0.36600
C745        C  0.70376210  0.71923550  0.98661722     0.06200
F746        F  0.76197561  0.73851034  0.95104979    -0.19700
H747        H  0.78128773  0.70162075  0.95896477     0.16000
F748        F  0.70276574  0.63131987  0.04128674    -0.23400
H749        H  0.68353853  0.66737898  0.03101210     0.17800
C750        C  0.67699823  0.70657053  0.96200704     0.25800
C751        C  0.66007471  0.72022879  0.96165479    -0.11900
C752        C  0.66932420  0.74690799  0.98576238    -0.25900
C753        C  0.69684771  0.76038728  0.00848371     0.36700
C754        C  0.71387811  0.74658127  0.00888857    -0.27600
F755        F  0.66688275  0.68052124  0.93915354    -0.19700
H756        H  0.63918472  0.70946078  0.94336946     0.16000
F757        F  0.70639164  0.78581082  0.03289193    -0.23400
H758        H  0.73434676  0.75659194  0.02835375     0.17800
C759        C  0.82126858  0.43359582  0.96431445    -0.27500
C760        C  0.83756805  0.43140400  0.00197257     0.06200
C761        C  0.84872058  0.45321307  0.03731229     0.25800
C762        C  0.84292555  0.47643425  0.03564171    -0.11900
C763        C  0.82523344  0.47771799  0.99944232    -0.25900
C764        C  0.81486328  0.45640509  0.96324540     0.36600
C765        C  0.83844047  0.40396132  0.00840587     0.06200
F766        F  0.86406043  0.45123080  0.07451897    -0.19700
H767        H  0.85098487  0.49258419  0.06394904     0.16000
F768        F  0.79811324  0.45739351  0.92738624    -0.23400
H769        H  0.81218839  0.41674340  0.93713909     0.17800
C770        C  0.82037810  0.38379601  0.04297600     0.25800
C771        C  0.81738739  0.35596431  0.04522170    -0.11900
C772        C  0.83276908  0.34783553  0.01366301    -0.25900
C773        C  0.85261477  0.36876968  0.98133657     0.36700
C774        C  0.85500911  0.39655328  0.97819107    -0.27600
F775        F  0.80422781  0.39045400  0.07269226    -0.19700
H776        H  0.80207577  0.34024634  0.07054657     0.16000
F777        F  0.86800185  0.36167814  0.95067561    -0.23400
H778        H  0.86911703  0.41196115  0.95142841     0.17800
C779        C  0.60675565  0.45289571  0.96595289    -0.27500
C780        C  0.59533417  0.43207177  0.00270432     0.06200
C781        C  0.61288712  0.43525104  0.04245320     0.25800
C782        C  0.64190429  0.45818902  0.04415383    -0.11900
C783        C  0.65352806  0.47851496  0.00678385    -0.25900
C784        C  0.63558217  0.47618470  0.96813241     0.36600
C785        C  0.56708398  0.40479518  0.99602037     0.06200
F786        F  0.60258878  0.41508738  0.07802389    -0.19700
H787        H  0.65554556  0.45973743  0.07412115     0.16000
F788        F  0.64653810  0.49520422  0.93102974    -0.23400
H789        H  0.59362655  0.45044849  0.93477366     0.17800
C790        C  0.54375045  0.39617382  0.02818463     0.25800
C791        C  0.51875580  0.36829695  0.02433924    -0.11900
C792        C  0.51723134  0.34868048  0.98906079    -0.25900
C793        C  0.54007381  0.35793102  0.95575731     0.36700
C794        C  0.56461169  0.38583925  0.95902847    -0.27600
F795        F  0.54563658  0.41428733  0.06410251    -0.19700
H796        H  0.50150273  0.36137310  0.05061425     0.16000
F797        F  0.53918132  0.33944900  0.92120988    -0.23400
H798        H  0.58246300  0.39211274  0.93411082     0.17800
C799        C  0.47240300  0.39897997  0.25256019    -0.27500
C800        C  0.44959584  0.36999824  0.25834598     0.06200
C801        C  0.43443483  0.36145516  0.30190513     0.25800
C802        C  0.44265924  0.38138988  0.33943913    -0.11900
C803        C  0.46577133  0.41030425  0.33396687    -0.25900
C804        C  0.48036750  0.41908005  0.28983841     0.36600
C805        C  0.44355045  0.34812194  0.22066228     0.06200
F806        F  0.41163800  0.33380536  0.30811144    -0.19700
H807        H  0.43076056  0.37424647  0.37273148     0.16000
F808        F  0.50302942  0.44674464  0.28314386    -0.23400
H809        H  0.48469103  0.40582613  0.21960118     0.17800
C810        C  0.43966931  0.35333387  0.17282750     0.25800
C811        C  0.43532138  0.33258622  0.13779212    -0.11900
C812        C  0.43476844  0.30636642  0.15000968    -0.25900
C813        C  0.43864004  0.30141478  0.19821597     0.36700
C814        C  0.44301438  0.32208841  0.23276775    -0.27600
F815        F  0.43970220  0.37824103  0.16015936    -0.19700
H816        H  0.43247417  0.33710708  0.10117275     0.16000
F817        F  0.43861229  0.27676004  0.21248862    -0.23400
H818        H  0.44659696  0.31794311  0.26923939     0.17800
C819        C  0.43599139  0.38451062  0.73446913    -0.27500
C820        C  0.44097184  0.36075783  0.73008114     0.06200
C821        C  0.45526302  0.35871775  0.68913941     0.25800
C822        C  0.46463354  0.38018342  0.65381071    -0.11900
C823        C  0.46035687  0.40428055  0.65880206    -0.25900
C824        C  0.44573141  0.40622307  0.69935954     0.36600
C825        C  0.43244093  0.33887760  0.76895494     0.06200
F826        F  0.46117604  0.33656125  0.68398065    -0.19700
H827        H  0.47588622  0.37831044  0.62290929     0.16000
F828        F  0.44022154  0.42866799  0.70455204    -0.23400
H829        H  0.42452857  0.38625067  0.76517467     0.17800
C830        C  0.44021486  0.34796933  0.81643221     0.25800
C831        C  0.43467640  0.32737652  0.85216501    -0.11900
C832        C  0.42153648  0.29734564  0.84135567    -0.25900
C833        C  0.41259493  0.28813420  0.79413553     0.36700
C834        C  0.41789135  0.30874601  0.75848849    -0.27600
F835        F  0.45472633  0.37688940  0.82796122    -0.19700
H836        H  0.44201945  0.33516357  0.88801871     0.16000
F837        F  0.39911979  0.25929799  0.78213532    -0.23400
H838        H  0.41108605  0.30117520  0.72237670     0.17800
C839        C  0.64516954  0.54065412  0.17869632    -0.27500
C840        C  0.65397232  0.54930626  0.22597584     0.06200
C841        C  0.68401796  0.56577164  0.23650677     0.25800
C842        C  0.70475421  0.57248202  0.20069893    -0.11900
C843        C  0.69602169  0.56324050  0.15358956    -0.25900
C844        C  0.66594567  0.54757431  0.14270477     0.36600
C845        C  0.63187772  0.54035411  0.26439317     0.06200
F846        F  0.69335263  0.57547125  0.28142924    -0.19700
H847        H  0.72776722  0.58479068  0.20995101     0.16000
F848        F  0.65656432  0.53753506  0.09794713    -0.23400
H849        H  0.62214525  0.52765249  0.16987540     0.17800
C850        C  0.60763751  0.54444917  0.25965691     0.25800
C851        C  0.58729500  0.53634904  0.29649052    -0.11900
C852        C  0.59078744  0.52424059  0.33892260    -0.25900
C853        C  0.61475890  0.51963745  0.34335639     0.36700
C854        C  0.63499489  0.52753812  0.30627558    -0.27600
F855        F  0.60411557  0.55721294  0.22014566    -0.19700
H856        H  0.56913919  0.54030520  0.29221734     0.16000
F857        F  0.61842332  0.50709537  0.38304406    -0.23400
H858        H  0.65311845  0.52351111  0.31018963     0.17800
C859        C  0.63757384  0.53762841  0.69213840    -0.27500
C860        C  0.62817933  0.53352639  0.73967872     0.06200
C861        C  0.59828369  0.52200505  0.74950114     0.25800
C862        C  0.57824989  0.51461637  0.71216509    -0.11900
C863        C  0.58763247  0.51848241  0.66440147    -0.25900
C864        C  0.61765380  0.52996702  0.65486326     0.36600
C865        C  0.64984909  0.54046029  0.77817658     0.06200
F866        F  0.58833139  0.51718940  0.79502947    -0.19700
H867        H  0.55534215  0.50581529  0.72077508     0.16000
F868        F  0.62807150  0.53428865  0.60962491    -0.23400
H869        H  0.66057996  0.54687468  0.68377270     0.17800
C870        C  0.66977470  0.53019420  0.77510418     0.25800
C871        C  0.69169710  0.53835424  0.80908191    -0.11900
C872        C  0.69386466  0.55630388  0.84766783    -0.25900
C873        C  0.67318957  0.56566680  0.85200002     0.36700
C874        C  0.65153907  0.55802431  0.81712967    -0.27600
F875        F  0.66768584  0.51173430  0.73959455    -0.19700
H876        H  0.70669465  0.53002994  0.80564419     0.16000
F877        F  0.67427416  0.58266843  0.88916911    -0.23400
H878        H  0.63642172  0.56622291  0.82011215     0.17800
C879        C  0.57414809  0.65862717  0.18503024    -0.27500
C880        C  0.56109130  0.65928190  0.22831076     0.06200
C881        C  0.55263320  0.68046277  0.23487028     0.25800
C882        C  0.55773802  0.70091342  0.19938159    -0.11900
C883        C  0.57064977  0.70031598  0.15593669    -0.25900
C884        C  0.57859862  0.67872618  0.14881015     0.36600
C885        C  0.55540959  0.63751701  0.26623415     0.06200
F886        F  0.53829054  0.68067092  0.27488134    -0.19700
H887        H  0.55067704  0.71674973  0.20551964     0.16000
F888        F  0.59079110  0.67710212  0.10718740    -0.23400
H889        H  0.58088763  0.64251860  0.17926185     0.17800
C890        C  0.54111461  0.60736934  0.25602080     0.25800
C891        C  0.53332725  0.58697040  0.29284624    -0.11900
C892        C  0.53922842  0.59612065  0.34069927    -0.25900
C893        C  0.55435152  0.62646038  0.35063124     0.36700
C894        C  0.56254687  0.64680442  0.31366387    -0.27600
F895        F  0.53326937  0.59751030  0.21074642    -0.19700
H896        H  0.52188396  0.56387842  0.28377489     0.16000
F897        F  0.56087993  0.63667575  0.39594802    -0.23400
H898        H  0.57401396  0.66997902  0.32223843     0.17800
C899        C  0.56243523  0.65020877  0.82300453    -0.27500
C900        C  0.55299749  0.65294960  0.77762191     0.06200
C901        C  0.54969489  0.67717854  0.76722360     0.25800
C902        C  0.55621533  0.69861956  0.80148763    -0.11900
C903        C  0.56587279  0.69625540  0.84709979    -0.25900
C904        C  0.56901984  0.67175752  0.85757832     0.36600
C905        C  0.54695554  0.63088346  0.74061927     0.06200
F906        F  0.53951157  0.67977411  0.72414078    -0.19700
H907        H  0.55304540  0.71683315  0.79236226     0.16000
F908        F  0.57861811  0.66864308  0.90083280    -0.23400
H909        H  0.56509620  0.63158135  0.83136463     0.17800
C910        C  0.56121948  0.63955418  0.69647649     0.25800
C911        C  0.55359541  0.61925232  0.65979549    -0.11900
C912        C  0.53201319  0.58983913  0.66678889    -0.25900
C913        C  0.51873519  0.58085854  0.71191812     0.36700
C914        C  0.52607776  0.60137430  0.74842743    -0.27600
F915        F  0.58261682  0.66771989  0.68896741    -0.19700
H916        H  0.56474408  0.62656249  0.62590786     0.16000
F917        F  0.49815287  0.55253386  0.72048898    -0.23400
H918        H  0.51500647  0.59439341  0.78243733     0.17800
C919        C  0.31578313  0.42633084  0.23568051    -0.27500
C920        C  0.34541568  0.44615542  0.22617847     0.06200
C921        C  0.35366896  0.45824019  0.18035307     0.25800
C922        C  0.33250308  0.45097569  0.14498722    -0.11900
C923        C  0.30270899  0.43208298  0.15491326    -0.25900
C924        C  0.29451227  0.41950502  0.20058810     0.36600
C925        C  0.36740314  0.45514109  0.26466159     0.06200
F926        F  0.38195600  0.47837552  0.17057238    -0.19700
H927        H  0.33927907  0.46133370  0.11041814     0.16000
F928        F  0.26599704  0.40082918  0.21147514    -0.23400
H929        H  0.30907094  0.41653272  0.27065667     0.17800
C930        C  0.36332818  0.46607310  0.30790085     0.25800
C931        C  0.38429703  0.47491600  0.34387902    -0.11900
C932        C  0.40973006  0.47309904  0.33741223    -0.25900
C933        C  0.41372932  0.46192455  0.29421269     0.36700
C934        C  0.39274327  0.45315924  0.25815845    -0.27600
F935        F  0.33938642  0.46887765  0.31493343    -0.19700
H936        H  0.38075062  0.48348703  0.37671671     0.16000
F937        F  0.43737613  0.45855464  0.28734621    -0.23400
H938        H  0.39605835  0.44441853  0.22531759     0.17800
C939        C  0.39591855  0.47118633  0.74498705    -0.27500
C940        C  0.36648914  0.45114790  0.73509950     0.06200
C941        C  0.35803613  0.44106537  0.68821922     0.25800
C942        C  0.37869172  0.45151475  0.65169674    -0.11900
C943        C  0.40811563  0.47193343  0.66139004    -0.25900
C944        C  0.41664494  0.48142204  0.70858895     0.36600
C945        C  0.34429973  0.44344789  0.77259661     0.06200
F946        F  0.32977654  0.42112727  0.67780587    -0.19700
H947        H  0.37172188  0.44329311  0.61590916     0.16000
F948        F  0.44484877  0.50113227  0.71949513    -0.23400
H949        H  0.40271159  0.47962347  0.78071799     0.17800
C950        C  0.34720085  0.43366816  0.81778656     0.25800
C951        C  0.32670624  0.42868250  0.85357683    -0.11900
C952        C  0.30301242  0.43319725  0.84451079    -0.25900
C953        C  0.30024387  0.44269520  0.79875327     0.36700
C954        C  0.32071292  0.44781715  0.76359598    -0.27600
F955        F  0.36965519  0.42875964  0.82706274    -0.19700
H956        H  0.32935561  0.42129612  0.88823978     0.16000
F957        F  0.27831882  0.44809852  0.78789451    -0.23400
H958        H  0.31851142  0.45602506  0.72937006     0.17800
C959        C  0.87361826  0.55633067  0.24073533    -0.27500
C960        C  0.89925157  0.55594513  0.22910394     0.06200
C961        C  0.90977163  0.56220279  0.18205562     0.25800
C962        C  0.89453872  0.56834621  0.14735352    -0.11900
C963        C  0.86873074  0.56863950  0.15900913    -0.25900
C964        C  0.85866159  0.56288170  0.20653072     0.36600
C965        C  0.91432223  0.54851726  0.26642750     0.06200
F966        F  0.93492653  0.56274788  0.16975043    -0.19700
H967        H  0.90290005  0.57270010  0.11127536     0.16000
F968        F  0.83388322  0.56270511  0.22018442    -0.23400
H969        H  0.86476728  0.55101938  0.27647651     0.17800
C970        C  0.91942182  0.56161522  0.31171561     0.25800
C971        C  0.93194537  0.55324909  0.34773808    -0.11900
C972        C  0.93975681  0.53176534  0.33941646    -0.25900
C973        C  0.93479711  0.51871090  0.29400279     0.36700
C974        C  0.92217394  0.52706194  0.25794394    -0.27600
F975        F  0.91253469  0.58275037  0.32108276    -0.19700
H976        H  0.93582461  0.56386713  0.38214091     0.16000
F977        F  0.94117323  0.49718316  0.28485170    -0.23400
H978        H  0.91780928  0.51618187  0.22371608     0.17800
C979        C  0.91219748  0.56196767  0.82394089    -0.27500
C980        C  0.90035110  0.55240724  0.77827836     0.06200
C981        C  0.87168377  0.54630770  0.76903452     0.25800
C982        C  0.85555729  0.55052825  0.80428634    -0.11900
C983        C  0.86737214  0.56056275  0.84992744    -0.25900
C984        C  0.89592862  0.56600478  0.85958514     0.36600
C985        C  0.91730755  0.54767609  0.74074394     0.06200
F986        F  0.85885387  0.53534854  0.72625872    -0.19700
H987        H  0.83348755  0.54548173  0.79579642     0.16000
F988        F  0.90832387  0.57549016  0.90307582    -0.23400
H989        H  0.93417894  0.56651083  0.83187180     0.17800
C990        C  0.92002753  0.55955817  0.69492426     0.25800
C991        C  0.93328021  0.55236447  0.65839133    -0.11900
C992        C  0.94443550  0.53349286  0.66684119    -0.25900
C993        C  0.94303738  0.52280793  0.71347470     0.36700
C994        C  0.92951752  0.52984015  0.74988524    -0.27600
F995        F  0.90982332  0.57813096  0.68544002    -0.19700
H996        H  0.93471176  0.56155174  0.62332450     0.16000
F997        F  0.95371513  0.50471428  0.72376215    -0.23400
H998        H  0.92770942  0.52052734  0.78496793     0.17800
C999        C  0.88835036  0.31564658  0.23723416    -0.27500
C1000       C  0.89746195  0.34514900  0.22713970     0.06200
C1001       C  0.89408710  0.35289909  0.18056336     0.25800
C1002       C  0.88143605  0.33144584  0.14525244    -0.11900
C1003       C  0.87130631  0.30183616  0.15589095    -0.25900
C1004       C  0.87506328  0.29408988  0.20216917     0.36600
C1005       C  0.91021101  0.36759136  0.26532304     0.06200
F1006       F  0.90162594  0.38094121  0.16969600    -0.19700
H1007       H  0.87823190  0.33781797  0.11006638     0.16000
F1008       F  0.86581476  0.26570302  0.21353356    -0.23400
H1009       H  0.89130221  0.30922859  0.27251418     0.17800
C1010       C  0.89687225  0.36255052  0.31040089     0.25800
C1011       C  0.90968437  0.38346020  0.34657019    -0.11900
C1012       C  0.93567093  0.41008464  0.33827392    -0.25900
C1013       C  0.94841700  0.41547996  0.29254931     0.36700
C1014       C  0.93599286  0.39427499  0.25686398    -0.27600
F1015       F  0.87113727  0.33764896  0.31924958    -0.19700
H1016       H  0.89911363  0.37885426  0.38106313     0.16000
F1017       F  0.97331445  0.44092064  0.28235930    -0.23400
H1018       H  0.94684119  0.39859848  0.22263923     0.17800
C1019       C  0.91627085  0.34567474  0.81699865    -0.27500
C1020       C  0.90099503  0.34657387  0.77659421     0.06200
C1021       C  0.87093114  0.32646194  0.77267234     0.25800
C1022       C  0.85656983  0.30556010  0.80796867    -0.11900
C1023       C  0.87167092  0.30425490  0.84830965    -0.25900
C1024       C  0.90174410  0.32477604  0.85283828     0.36600
C1025       C  0.91616265  0.36821432  0.73821702     0.06200
F1026       F  0.85521720  0.32743048  0.73512382    -0.19700
H1027       H  0.83329009  0.29060674  0.80394940     0.16000
F1028       F  0.91718975  0.32435405  0.89118282    -0.23400
H1029       H  0.93951572  0.36095787  0.82049178     0.17800
C1030       C  0.93256912  0.39836346  0.74809399     0.25800
C1031       C  0.94518729  0.41856550  0.71095133    -0.11900
C1032       C  0.94176333  0.40910464  0.66325317    -0.25900
C1033       C  0.92564904  0.37874018  0.65367626     0.36700
C1034       C  0.91308402  0.35865352  0.69084888    -0.27600
F1035       F  0.93555045  0.40834893  0.79346630    -0.19700
H1036       H  0.95737366  0.44170274  0.71964922     0.16000
F1037       F  0.92198649  0.36823909  0.60854319    -0.23400
H1038       H  0.90077004  0.33544654  0.68260275     0.17800
C1039       C  0.11770244  0.43321854  0.23546985    -0.27500
C1040       C  0.10396890  0.44931661  0.22348045     0.06200
C1041       C  0.10409053  0.45741237  0.17569129     0.25800
C1042       C  0.11831024  0.45003110  0.14098237    -0.11900
C1043       C  0.13292468  0.43477993  0.15330727    -0.25900
C1044       C  0.13209034  0.42603707  0.20093596     0.36600
C1045       C  0.09081737  0.45851333  0.26156947     0.06200
F1046       F  0.09181297  0.47373046  0.16287440    -0.19700
H1047       H  0.11892938  0.45736476  0.10474176     0.16000
F1048       F  0.14526926  0.41065647  0.21433327    -0.23400
H1049       H  0.11752459  0.42640875  0.27192514     0.17800
C1050       C  0.06232985  0.45407779  0.25729007     0.25800
C1051       C  0.05036666  0.46269542  0.29393838    -0.11900
C1052       C  0.06615229  0.47507846  0.33607292    -0.25900
C1053       C  0.09454874  0.47922005  0.34055209     0.36700
C1054       C  0.10677181  0.47125115  0.30342303    -0.27600
F1055       F  0.04554968  0.44023820  0.21872303    -0.19700
H1056       H  0.02829023  0.45875288  0.28996294     0.16000
F1057       F  0.11063205  0.49115368  0.38055112    -0.23400
H1058       H  0.12880650  0.47497822  0.30741940     0.17800
C1059       C  0.11947395  0.43220578  0.76110980    -0.27500
C1060       C  0.10333982  0.44590649  0.77272659     0.06200
C1061       C  0.10043413  0.45148410  0.82079560     0.25800
C1062       C  0.11493738  0.44496232  0.85621111    -0.11900
C1063       C  0.13243056  0.43268381  0.84433702    -0.25900
C1064       C  0.13378640  0.42550077  0.79640455     0.36600
C1065       C  0.09010806  0.45464438  0.73429253     0.06200
F1066       F  0.08461130  0.46433704  0.83334430    -0.19700
H1067       H  0.11322450  0.45041324  0.89276556     0.16000
F1068       F  0.14894591  0.41201593  0.78343869    -0.23400
H1069       H  0.12114391  0.42684410  0.72442749     0.17800
C1070       C  0.10709387  0.47112234  0.69520508     0.25800
C1071       C  0.09428945  0.47853887  0.65827839    -0.11900
C1072       C  0.06456891  0.47014986  0.66022307    -0.25900
C1073       C  0.04759821  0.45385762  0.69937072     0.36700
C1074       C  0.06030767  0.44610136  0.73599911    -0.27600
F1075       F  0.13620880  0.48061742  0.69326691    -0.19700
H1076       H  0.10771708  0.49135148  0.62859126     0.16000
F1077       F  0.01854290  0.44465903  0.70144087    -0.23400
H1078       H  0.04677299  0.43302224  0.76538315     0.17800
C1079       C  0.09202204  0.65074162  0.17841711    -0.27500
C1080       C  0.10553525  0.65446922  0.22303390     0.06200
C1081       C  0.13380245  0.67832596  0.23007616     0.25800
C1082       C  0.14800065  0.69833582  0.19362577    -0.11900
C1083       C  0.13466572  0.69495755  0.14885373    -0.25900
C1084       C  0.10640405  0.67077171  0.14147797     0.36600
C1085       C  0.09078793  0.63296991  0.26170341     0.06200
F1086       F  0.14824361  0.68177875  0.27173386    -0.19700
H1087       H  0.16988406  0.71631679  0.20053377     0.16000
F1088       F  0.09260583  0.66643586  0.09895325    -0.23400
H1089       H  0.07025920  0.63233690  0.17227543     0.17800
C1090       C  0.08943636  0.64232084  0.30807544     0.25800
C1091       C  0.07752561  0.62202227  0.34505613    -0.11900
C1092       C  0.06605444  0.59195921  0.33637760    -0.25900
C1093       C  0.06679693  0.58253751  0.28965945     0.36700
C1094       C  0.07915436  0.60294700  0.25281372    -0.27600
F1095       F  0.09910677  0.67103718  0.31748503    -0.19700
H1096       H  0.07668374  0.62982772  0.38038170     0.16000
F1097       F  0.05614084  0.55372082  0.27960228    -0.23400
H1098       H  0.08016569  0.59534315  0.21740321     0.17800
C1099       C  0.08549557  0.65317068  0.81777186    -0.27500
C1100       C  0.09411673  0.65968650  0.77006268     0.06200
C1101       C  0.11561150  0.68828559  0.75754258     0.25800
C1102       C  0.12957086  0.70950432  0.79269239    -0.11900
C1103       C  0.12234421  0.70271018  0.84104980    -0.25900
C1104       C  0.09918884  0.67450826  0.85306372     0.36600
C1105       C  0.08132242  0.63650190  0.73354019     0.06200
F1106       F  0.12426985  0.69530315  0.71157462    -0.19700
H1107       H  0.14696697  0.73097404  0.78196435     0.16000
F1108       F  0.09024506  0.66712767  0.89882759    -0.23400
H1109       H  0.06839288  0.63136354  0.82773730     0.17800
C1110       C  0.08310831  0.61081864  0.73799720     0.25800
C1111       C  0.07222197  0.58972660  0.70193794    -0.11900
C1112       C  0.05962227  0.59409453  0.66103270    -0.25900
C1113       C  0.05704111  0.61931671  0.65728732     0.36700
C1114       C  0.06800161  0.64042792  0.69320114    -0.27600
F1115       F  0.09618790  0.60658920  0.77641469    -0.19700
H1116       H  0.07415094  0.57026115  0.70547870     0.16000
F1117       F  0.04309898  0.62306455  0.61963147    -0.23400
H1118       H  0.06596678  0.65983007  0.68971889     0.17800
C1119       C  0.32934580  0.86326677  0.22344262    -0.27500
C1120       C  0.34930366  0.89334031  0.21869191     0.06200
C1121       C  0.34872551  0.90774071  0.17672922     0.25800
C1122       C  0.32803190  0.89228262  0.14094109    -0.11900
C1123       C  0.30747890  0.86227711  0.14644411    -0.25900
C1124       C  0.30871985  0.84787882  0.18802760     0.36600
C1125       C  0.37053303  0.90909042  0.25779617     0.06200
F1126       F  0.36749986  0.93690172  0.17097920    -0.19700
H1127       H  0.32766826  0.90395330  0.10943059     0.16000
F1128       F  0.29026227  0.81870463  0.19445420    -0.23400
H1129       H  0.32983760  0.85151541  0.25476852     0.17800
C1130       C  0.36097443  0.90626118  0.30531408     0.25800
C1131       C  0.38113078  0.92002122  0.34223808    -0.11900
C1132       C  0.41136619  0.93672713  0.33289687    -0.25900
C1133       C  0.42090752  0.93917622  0.28525813     0.36700
C1134       C  0.40064923  0.92571087  0.24826558    -0.27600
F1135       F  0.33203125  0.89038701  0.31606488    -0.19700
H1136       H  0.37293501  0.91763497  0.37827654     0.16000
F1137       F  0.44984731  0.95388708  0.27430367    -0.23400
H1138       H  0.40859217  0.92760435  0.21214390     0.17800
C1139       C  0.31224540  0.88203728  0.75602939    -0.27500
C1140       C  0.34179233  0.89967980  0.76870130     0.06200
C1141       C  0.34931812  0.90385404  0.81732358     0.25800
C1142       C  0.32779144  0.88942659  0.85214329    -0.11900
C1143       C  0.29832989  0.87076087  0.83931545    -0.25900
C1144       C  0.29072409  0.86777229  0.79070294     0.36600
C1145       C  0.36437827  0.91333827  0.73084254     0.06200
F1146       F  0.37757694  0.92098764  0.83124751    -0.19700
H1147       H  0.33440578  0.89223754  0.88916506     0.16000
F1148       F  0.26249231  0.85107150  0.77637421    -0.23400
H1149       H  0.30574117  0.87928423  0.71896027     0.17800
C1150       C  0.36438558  0.89673716  0.69144399     0.25800
C1151       C  0.38513614  0.90990543  0.65524841    -0.11900
C1152       C  0.40648807  0.93968558  0.65787817    -0.25900
C1153       C  0.40650837  0.95636813  0.69701918     0.36700
C1154       C  0.38560320  0.94326796  0.73309077    -0.27600
F1155       F  0.34467198  0.86762592  0.68829290    -0.19700
H1156       H  0.38485708  0.89667955  0.62547260     0.16000
F1157       F  0.42602780  0.98556367  0.69946566    -0.23400
H1158       H  0.38562194  0.95669421  0.76232083     0.17800
C1159       C  0.55499076  0.94507803  0.25716228    -0.27500
C1160       C  0.55152130  0.91699514  0.26298730     0.06200
C1161       C  0.53930432  0.90166911  0.30563693     0.25800
C1162       C  0.53086505  0.91425130  0.34156323    -0.11900
C1163       C  0.53383701  0.94209347  0.33549398    -0.25900
C1164       C  0.54603289  0.95747766  0.29278506     0.36600
C1165       C  0.55963262  0.90324890  0.22412709     0.06200
F1166       F  0.53446731  0.87402432  0.31194947    -0.19700
H1167       H  0.52135672  0.90185326  0.37387140     0.16000
F1168       F  0.54985356  0.98469979  0.28571517    -0.23400
H1169       H  0.56469298  0.95746696  0.22492953     0.17800
C1170       C  0.54983939  0.90238534  0.17723264     0.25800
C1171       C  0.55527311  0.88698448  0.14186876    -0.11900
C1172       C  0.57043803  0.87203461  0.15256963    -0.25900
C1173       C  0.58135920  0.87404500  0.19902013     0.36700
C1174       C  0.57603704  0.88955331  0.23425500    -0.27600
F1175       F  0.53364446  0.91506835  0.16612738    -0.19700
H1176       H  0.54651747  0.88575993  0.10651815     0.16000
F1177       F  0.59705359  0.86088999  0.21057447    -0.23400
H1178       H  0.58442002  0.89052094  0.26981774     0.17800
C1179       C  0.54959300  0.90233479  0.82037355    -0.27500
C1180       C  0.54929556  0.89455794  0.77237979     0.06200
C1181       C  0.55597677  0.87250429  0.76122568     0.25800
C1182       C  0.56245228  0.85847739  0.79718864    -0.11900
C1183       C  0.56191742  0.86552899  0.84531113    -0.25900
C1184       C  0.55559735  0.88787717  0.85662195     0.36600
C1185       C  0.54202003  0.90931204  0.73409389     0.06200
F1186       F  0.55522089  0.86358149  0.71564473    -0.19700
H1187       H  0.56728096  0.84148616  0.78707845     0.16000
F1188       F  0.55457344  0.89543552  0.90249652    -0.23400
H1189       H  0.54518212  0.91968067  0.82993927     0.17800
C1190       C  0.51860742  0.91481418  0.73901889     0.25800
C1191       C  0.51202025  0.92850695  0.70236535    -0.11900
C1192       C  0.52802470  0.93618952  0.65970161    -0.25900
C1193       C  0.55109452  0.93031199  0.65443138     0.36700
C1194       C  0.55832945  0.91758068  0.69164709    -0.27600
F1195       F  0.50152070  0.90624487  0.77855893    -0.19700
H1196       H  0.49394138  0.93254965  0.70695063     0.16000
F1197       F  0.56720916  0.93757056  0.61384429    -0.23400
H1198       H  0.57693436  0.91437590  0.68726170     0.17800
C1199       C  0.65153742  0.09230781  0.17870278    -0.27500
C1200       C  0.65844882  0.10037939  0.22667618     0.06200
C1201       C  0.68676849  0.12282000  0.23846085     0.25800
C1202       C  0.70746966  0.13733857  0.20294148    -0.11900
C1203       C  0.70047224  0.13013576  0.15466376    -0.25900
C1204       C  0.67222775  0.10707159  0.14285912     0.36600
C1205       C  0.63592288  0.08655233  0.26431215     0.06200
F1206       F  0.69407541  0.13181536  0.28422523    -0.19700
H1207       H  0.72885658  0.15493509  0.21347947     0.16000
F1208       F  0.66418492  0.09925294  0.09686456    -0.23400
H1209       H  0.62990971  0.07482670  0.16892195     0.17800
C1210       C  0.60850279  0.08473627  0.25964902     0.25800
C1211       C  0.58822453  0.07355540  0.29686747    -0.11900
C1212       C  0.59508067  0.06440509  0.33951035    -0.25900
C1213       C  0.62233754  0.06587870  0.34395781     0.36700
C1214       C  0.64243250  0.07666557  0.30652401    -0.27600
F1215       F  0.60170229  0.09470869  0.21983756    -0.19700
H1216       H  0.56728407  0.07247222  0.29268252     0.16000
F1217       F  0.62920349  0.05604787  0.38387156    -0.23400
H1218       H  0.66320584  0.07737596  0.31053994     0.17800
C1219       C  0.65232524  0.09596652  0.81924046    -0.27500
C1220       C  0.65428493  0.10975589  0.77551929     0.06200
C1221       C  0.67670759  0.13886597  0.76864794     0.25800
C1222       C  0.69754969  0.15338031  0.80408876    -0.11900
C1223       C  0.69615899  0.13945296  0.84757309    -0.25900
C1224       C  0.67291758  0.11065530  0.85516350     0.36600
C1225       C  0.63285106  0.09374434  0.73733044     0.06200
F1226       F  0.67808577  0.15352707  0.72807061    -0.19700
H1227       H  0.71466098  0.17576880  0.79753997     0.16000
F1228       F  0.67027211  0.09643116  0.89678536    -0.23400
H1229       H  0.63500952  0.07360156  0.82531241     0.17800
C1230       C  0.64225112  0.09247559  0.69101567     0.25800
C1231       C  0.62181262  0.07777072  0.65505914    -0.11900
C1232       C  0.59160984  0.06401964  0.66448078    -0.25900
C1233       C  0.58225227  0.06501151  0.71111935     0.36700
C1234       C  0.60275922  0.07966455  0.74710509    -0.27600
F1235       F  0.67120732  0.10510133  0.68064075    -0.19700
H1236       H  0.62971270  0.07713437  0.61972950     0.16000
F1237       F  0.55337285  0.05267832  0.72181158    -0.23400
H1238       H  0.59512719  0.08056026  0.78253510     0.17800
C1239       C  0.45639500  0.10530447  0.18227293    -0.27500
C1240       C  0.45179047  0.10953676  0.23016244     0.06200
C1241       C  0.44002534  0.12760122  0.24111387     0.25800
C1242       C  0.43350633  0.14149048  0.20477851    -0.11900
C1243       C  0.43843363  0.13761205  0.15674554    -0.25900
C1244       C  0.44970102  0.11903279  0.14582036     0.36600
C1245       C  0.45983843  0.09549006  0.26834788     0.06200
F1246       F  0.43455324  0.13163755  0.28689995    -0.19700
H1247       H  0.42471102  0.15548612  0.21444002     0.16000
F1248       F  0.45525737  0.11484093  0.10019067    -0.23400
H1249       H  0.46585956  0.09182883  0.17306904     0.17800
C1250       C  0.45128257  0.06557602  0.26568315     0.25800
C1251       C  0.45976448  0.05274474  0.30103038    -0.11900
C1252       C  0.47622039  0.06925318  0.34024072    -0.25900
C1253       C  0.48449116  0.09906575  0.34340619     0.36700
C1254       C  0.47662233  0.11210746  0.30738812    -0.27600
F1255       F  0.43396867  0.04852202  0.22967816    -0.19700
H1256       H  0.45271099  0.02959769  0.29848298     0.16000
F1257       F  0.50066345  0.11569618  0.38069780    -0.23400
H1258       H  0.48386909  0.13529140  0.30978622     0.17800
C1259       C  0.44056452  0.08327826  0.69131995    -0.27500
C1260       C  0.45170127  0.08579089  0.73755865     0.06200
C1261       C  0.47091147  0.07510163  0.74680089     0.25800
C1262       C  0.47928097  0.06286784  0.71005711    -0.11900
C1263       C  0.46897256  0.06138797  0.66336247    -0.25900
C1264       C  0.44923735  0.07150692  0.65449642     0.36600
C1265       C  0.44448015  0.10111399  0.77491696     0.06200
F1266       F  0.48255440  0.07756195  0.79081589    -0.19700
H1267       H  0.49441543  0.05517789  0.71796268     0.16000
F1268       F  0.43790897  0.06969692  0.61040641    -0.23400
H1269       H  0.42519990  0.09069724  0.68354651     0.17800
C1270       C  0.44665907  0.12830327  0.76494296     0.25800
C1271       C  0.44090464  0.14330903  0.80018829    -0.11900
C1272       C  0.43308640  0.13187559  0.84651759    -0.25900
C1273       C  0.43034595  0.10434587  0.85644839     0.36700
C1274       C  0.43594930  0.08914518  0.82081693    -0.27600
F1275       F  0.45552780  0.14107812  0.72153372    -0.19700
H1276       H  0.44342054  0.16446546  0.79123493     0.16000
F1277       F  0.42218460  0.09201720  0.90027543    -0.23400
H1278       H  0.43359701  0.06797267  0.82908198     0.17800
loop_ 
_geom_bond_atom_site_label_1 
_geom_bond_atom_site_label_2 
_geom_bond_distance 
_geom_bond_site_symmetry_2 
_ccdc_geom_bond_type 
O1          Zr13   2.443       .  S
O1            C3   1.289       .  A
O2          Zr39   2.417       .  S
O2            C3   1.285       .  A
C3         C1263   1.482       .  S
O4          Zr16   2.451       .  S
O4            C6   1.290       .  A
O5          Zr40   2.428   1_565  S
O5            C6   1.287       .  A
C6         C1132   1.493       .  S
O7          Zr16   2.446       .  S
O7            C9   1.289       .  A
O8          Zr39   2.417   1_565  S
O8            C9   1.285       .  A
C9         C1152   1.475       .  S
O10         Zr13   2.434       .  S
O10          C12   1.286       .  A
O11         Zr40   2.417       .  S
O11          C12   1.286       .  A
C12        C1252   1.470       .  S
Zr13         O14   2.433       .  S
Zr13         O15   2.437       .  S
Zr13         O19   2.368       .  S
Zr13         O20   2.377       .  S
Zr13         O43   2.373       .  S
Zr13         O45   2.368       .  S
O14          H57   0.990       .  S
O15          H56   0.990       .  S
O15          H60   0.990       .  S
Zr16         O17   2.437       .  S
Zr16         O18   2.434       .  S
Zr16         O20   2.375   1_565  S
Zr16         O19   2.374   1_565  S
Zr16         O44   2.372       .  S
Zr16         O46   2.373       .  S
O17          H58   0.990       .  S
O17          H61   0.990       .  S
O18          H51   0.990       .  S
O19         Zr39   2.373       .  S
O20         Zr40   2.381       .  S
O20          H47   0.966       .  S
O21         Zr33   2.449       .  S
O21          C23   1.290       .  A
O22         Zr40   2.416       .  S
O22          C23   1.285       .  A
C23        C1212   1.474       .  S
O24         Zr36   2.438       .  S
O24          C26   1.288       .  A
O25         Zr39   2.411   1_565  S
O25          C26   1.284       .  A
C26        C1192   1.473       .  S
O27         Zr36   2.447       .  S
O27          C29   1.290       .  A
O28         Zr40   2.418   1_565  S
O28          C29   1.286       .  A
C29        C1163   1.481       .  S
O30         Zr33   2.439       .  S
O30          C32   1.288       .  A
O31         Zr39   2.417       .  S
O31          C32   1.285       .  A
C32        C1232   1.481       .  S
Zr33         O34   2.438       .  S
Zr33         O35   2.435       .  S
Zr33         O41   2.365       .  S
Zr33         O42   2.373       .  S
Zr33         O45   2.374       .  S
Zr33         O43   2.373       .  S
O34          H54   0.990       .  S
O34          H59   0.990       .  S
O35          H55   0.990       .  S
Zr36         O37   2.434       .  S
Zr36         O38   2.433       .  S
Zr36         O42   2.373   1_565  S
Zr36         O41   2.364   1_565  S
Zr36         O46   2.375       .  S
Zr36         O44   2.373       .  S
O37          H53   0.990       .  S
O38          H52   0.990       .  S
O38          H62   0.990       .  S
Zr39         O42   2.381       .  S
Zr39         O44   2.385   1_545  S
Zr39         O45   2.381       .  S
Zr40         O41   2.383       .  S
Zr40         O43   2.381       .  S
Zr40         O46   2.381   1_545  S
O41          H49   0.965       .  S
O44          H48   0.966       .  S
O45          H50   0.966       .  S
O63         Zr75   2.440       .  S
O63          C65   1.288       .  A
O64        Zr101   2.406       .  S
O64          C65   1.283       .  A
C65        C1112   1.466       .  S
O66         Zr78   2.454       .  S
O66          C68   1.291       .  A
O67        Zr102   2.407   1_655  S
O67          C68   1.283       .  A
C68         C972   1.478       .  S
O69         Zr78   2.457       .  S
O69          C71   1.292       .  A
O70        Zr101   2.401   1_655  S
O70          C71   1.282       .  A
C71         C992   1.483       .  S
O72         Zr75   2.445       .  S
O72          C74   1.289       .  A
O73        Zr102   2.405       .  S
O73          C74   1.283       .  A
C74        C1092   1.477       .  S
Zr75         O76   2.434       .  S
Zr75         O77   2.435       .  S
Zr75         O81   2.366       .  S
Zr75         O82   2.368       .  S
Zr75        O105   2.369       .  S
Zr75        O107   2.372       .  S
O76         H119   0.990       .  S
O77         H118   0.990       .  S
O77         H122   0.990       .  S
Zr78         O79   2.437       .  S
Zr78         O80   2.433       .  S
Zr78         O82   2.372   1_655  S
Zr78         O81   2.364   1_655  S
Zr78        O106   2.373       .  S
Zr78        O108   2.376       .  S
O79         H120   0.990       .  S
O79         H123   0.990       .  S
O80         H113   0.990       .  S
O81        Zr101   2.375       .  S
O82        Zr102   2.383       .  S
O82         H109   0.965       .  S
O83         Zr95   2.439       .  S
O83          C85   1.288       .  A
O84        Zr102   2.416       .  S
O84          C85   1.285       .  A
C85        C1052   1.478       .  S
O86         Zr98   2.439       .  S
O86          C88   1.287       .  A
O87        Zr101   2.414   1_655  S
O87          C88   1.285       .  A
C88        C1032   1.485       .  S
O89         Zr98   2.449       .  S
O89          C91   1.290       .  A
O90        Zr102   2.411   1_655  S
O90          C91   1.284       .  A
C91        C1012   1.484       .  S
O92         Zr95   2.440       .  S
O92          C94   1.288       .  A
O93        Zr101   2.404       .  S
O93          C94   1.282       .  A
C94        C1072   1.468       .  S
Zr95         O96   2.435       .  S
Zr95         O97   2.434       .  S
Zr95        O103   2.373       .  S
Zr95        O104   2.370       .  S
Zr95        O107   2.372       .  S
Zr95        O105   2.372       .  S
O96         H116   0.990       .  S
O96         H121   0.990       .  S
O97         H117   0.990       .  S
Zr98         O99   2.433       .  S
Zr98        O100   2.434       .  S
Zr98        O104   2.372   1_655  S
Zr98        O103   2.372   1_655  S
Zr98        O108   2.373       .  S
Zr98        O106   2.371       .  S
O99         H115   0.990       .  S
O100        H114   0.990       .  S
O100        H124   0.990       .  S
Zr101       O104   2.368       .  S
Zr101       O106   2.378   1_455  S
Zr101       O107   2.381       .  S
Zr102       O103   2.374       .  S
Zr102       O105   2.377       .  S
Zr102       O108   2.378   1_455  S
O103        H111   0.966       .  S
O106        H110   0.965       .  S
O107        H112   0.965       .  S
O125       Zr137   2.443       .  S
O125        C127   1.289       .  A
O126       Zr163   2.399       .  S
O126        C127   1.281       .  A
C127        C912   1.473       .  S
O128       Zr140   2.440       .  S
O128        C130   1.288       .  A
O129       Zr164   2.404       .  S
O129        C130   1.283       .  A
C130        C932   1.475       .  S
O131       Zr140   2.448       .  S
O131        C133   1.289       .  A
O132       Zr163   2.396       .  S
O132        C133   1.281       .  A
C133        C943   1.472       .  S
O134       Zr137   2.445       .  S
O134        C136   1.289       .  A
O135       Zr164   2.412       .  S
O135        C136   1.285       .  A
C136        C892   1.486       .  S
Zr137       O138   2.435       .  S
Zr137       O139   2.436       .  S
Zr137       O143   2.379       .  S
Zr137       O144   2.375       .  S
Zr137       O167   2.368       .  S
Zr137       O169   2.369       .  S
O138        H181   0.990       .  S
O139        H180   0.990       .  S
O139        H184   0.990       .  S
Zr140       O141   2.435       .  S
Zr140       O142   2.434       .  S
Zr140       O144   2.372       .  S
Zr140       O143   2.372       .  S
Zr140       O168   2.368       .  S
Zr140       O170   2.372       .  S
O141        H182   0.990       .  S
O141        H185   0.990       .  S
O142        H175   0.990       .  S
O143       Zr163   2.382       .  S
O144       Zr164   2.381       .  S
O144        H171   0.966       .  S
O145       Zr157   2.446       .  S
O145        C147   1.289       .  A
O146       Zr164   2.405       .  S
O146        C147   1.283       .  A
C147        C852   1.477       .  S
O148       Zr160   2.443       .  S
O148        C150   1.289       .  A
O149       Zr163   2.413       .  S
O149        C150   1.284       .  A
C150        C823   1.474       .  S
O151       Zr160   2.444       .  S
O151        C153   1.289       .  A
O152       Zr164   2.404       .  S
O152        C153   1.283       .  A
C153        C803   1.475       .  S
O154       Zr157   2.437       .  S
O154        C156   1.288       .  A
O155       Zr163   2.411       .  S
O155        C156   1.284       .  A
C156        C863   1.482       .  S
Zr157       O158   2.435       .  S
Zr157       O159   2.434       .  S
Zr157       O165   2.368       .  S
Zr157       O166   2.376       .  S
Zr157       O169   2.369       .  S
Zr157       O167   2.369       .  S
O158        H178   0.990       .  S
O158        H183   0.990       .  S
O159        H179   0.990       .  S
Zr160       O161   2.433       .  S
Zr160       O162   2.435       .  S
Zr160       O166   2.372       .  S
Zr160       O165   2.369       .  S
Zr160       O170   2.371       .  S
Zr160       O168   2.362       .  S
O161        H177   0.990       .  S
O162        H176   0.990       .  S
O162        H186   0.990       .  S
Zr163       O166   2.376       .  S
Zr163       O168   2.374       .  S
Zr163       O169   2.378       .  S
Zr164       O165   2.379       .  S
Zr164       O167   2.369       .  S
Zr164       O170   2.374       .  S
O165        H173   0.966       .  S
O168        H172   0.965       .  S
O169        H174   0.965       .  S
O187       Zr199   2.448   1_556  S
O187        C189   1.289   1_556  A
O188       Zr225   2.428       .  S
O188        C189   1.286       .  A
C189        C763   1.477   1_554  S
O190       Zr202   2.438       .  S
O190        C192   1.288       .  A
O191       Zr226   2.420   1_556  S
O191        C192   1.285       .  A
C192        C872   1.478       .  S
O193       Zr202   2.436       .  S
O193        C195   1.288       .  A
O194       Zr225   2.429   1_556  S
O194        C195   1.287       .  A
C195        C983   1.487       .  S
O196       Zr199   2.447       .  S
O196        C198   1.289       .  A
O197       Zr226   2.416       .  S
O197        C198   1.284       .  A
C198        C783   1.468       .  S
Zr199       O200   2.433   1_554  S
Zr199       O201   2.436       .  S
Zr199       O205   2.371   1_554  S
Zr199       O206   2.367   1_554  S
Zr199       O229   2.365       .  S
Zr199       O231   2.360       .  S
O200        H243   0.990       .  S
O201        H242   0.990       .  S
O201        H246   0.990       .  S
Zr202       O203   2.436       .  S
Zr202       O204   2.436       .  S
Zr202       O206   2.368       .  S
Zr202       O205   2.371       .  S
Zr202       O230   2.369       .  S
Zr202       O232   2.372       .  S
O203        H244   0.990       .  S
O203        H247   0.990       .  S
O204        H237   0.990       .  S
O205       Zr225   2.378   1_556  S
O206       Zr226   2.382   1_556  S
O206        H233   0.966       .  S
O207       Zr219   2.429       .  S
O207        C209   1.286       .  A
O208       Zr226   2.426       .  S
O208        C209   1.286       .  A
C209        C843   1.478       .  S
O210       Zr222   2.473       .  S
O210        C212   1.294       .  A
O211       Zr225   2.406   1_556  S
O211        C212   1.285       .  A
C212        C723   1.491       .  S
O213       Zr222   2.479       .  S
O213        C215   1.295       .  A
O214       Zr226   2.410   1_556  S
O214        C215   1.285       .  A
C215        C743   1.492       .  S
O216       Zr219   2.427       .  S
O216        C218   1.285       .  A
O217       Zr225   2.428       .  S
O217        C218   1.287       .  A
C218        C963   1.484       .  S
Zr219       O220   2.436       .  S
Zr219       O221   2.433       .  S
Zr219       O227   2.364       .  S
Zr219       O228   2.370       .  S
Zr219       O231   2.374       .  S
Zr219       O229   2.369       .  S
O220        H240   0.990       .  S
O220        H245   0.990       .  S
O221        H241   0.990       .  S
Zr222       O223   2.436   1_556  S
Zr222       O224   2.435       .  S
Zr222       O228   2.384   1_556  S
Zr222       O227   2.381   1_556  S
Zr222       O232   2.384       .  S
Zr222       O230   2.381       .  S
O223        H239   0.990       .  S
O224        H238   0.990       .  S
O224        H248   0.990       .  S
Zr225       O228   2.388       .  S
Zr225       O230   2.389   1_554  S
Zr225       O231   2.379       .  S
Zr226       O227   2.385       .  S
Zr226       O229   2.375       .  S
Zr226       O232   2.385   1_554  S
O227        H235   0.965       .  S
O230        H234   0.965       .  S
O231        H236   0.965       .  S
O249       Zr261   2.423       .  S
O249        C251   1.285       .  A
O250       Zr287   2.452       .  S
O250        C251   1.291       .  A
C251        C703   1.485       .  S
O252       Zr264   2.435       .  S
O252        C254   1.287       .  A
O253       Zr288   2.429   1_556  S
O253        C254   1.287       .  A
C254       C1023   1.481       .  S
O255       Zr264   2.431       .  S
O255        C257   1.287       .  A
O256       Zr287   2.420   1_556  S
O256        C257   1.286       .  A
C257       C1223   1.482       .  S
O258       Zr261   2.424       .  S
O258        C260   1.285       .  A
O259       Zr288   2.443       .  S
O259        C260   1.289       .  A
C260        C772   1.478       .  S
Zr261       O262   2.435   1_554  S
Zr261       O263   2.436       .  S
Zr261       O267   2.368   1_554  S
Zr261       O268   2.364   1_554  S
Zr261       O291   2.357       .  S
Zr261       O293   2.361       .  S
O262        H305   0.990       .  S
O263        H304   0.990       .  S
O263        H308   0.990       .  S
Zr264       O265   2.437       .  S
Zr264       O266   2.435       .  S
Zr264       O268   2.374       .  S
Zr264       O267   2.372       .  S
Zr264       O292   2.364       .  S
Zr264       O294   2.371       .  S
O265        H306   0.990       .  S
O265        H309   0.990       .  S
O266        H299   0.990       .  S
O267       Zr287   2.377   1_556  S
O268       Zr288   2.384   1_556  S
O268        H295   0.966       .  S
O269       Zr281   2.438       .  S
O269        C271   1.288       .  A
O270       Zr288   2.418       .  S
O270        C271   1.286       .  A
C271       C1003   1.474       .  S
O272       Zr284   2.462       .  S
O272        C274   1.292       .  A
O273       Zr287   2.425   1_556  S
O273        C274   1.289       .  A
C274        C663   1.486       .  S
O275       Zr284   2.471       .  S
O275        C277   1.293   1_556  A
O276       Zr288   2.420       .  S
O276        C277   1.287       .  A
C277        C683   1.482       .  S
O278       Zr281   2.439       .  S
O278        C280   1.288       .  A
O279       Zr287   2.416       .  S
O279        C280   1.285       .  A
C280       C1203   1.484       .  S
Zr281       O282   2.432       .  S
Zr281       O283   2.434       .  S
Zr281       O289   2.365       .  S
Zr281       O290   2.366       .  S
Zr281       O293   2.366       .  S
Zr281       O291   2.369       .  S
O282        H302   0.990       .  S
O282        H307   0.990       .  S
O283        H303   0.990       .  S
Zr284       O285   2.434   1_556  S
Zr284       O286   2.437       .  S
Zr284       O290   2.383   1_556  S
Zr284       O289   2.380   1_556  S
Zr284       O294   2.381       .  S
Zr284       O292   2.382       .  S
O285        H301   0.990       .  S
O286        H300   0.990       .  S
O286        H310   0.990       .  S
Zr287       O290   2.389       .  S
Zr287       O292   2.390   1_554  S
Zr287       O293   2.380       .  S
Zr288       O289   2.394       .  S
Zr288       O291   2.375       .  S
Zr288       O294   2.389   1_554  S
O289        H297   0.965       .  S
O292        H296   0.966       .  S
O293        H298   0.965       .  S
O311       Zr323   2.437       .  S
O311        C313   1.288       .  A
O312       Zr349   2.433       .  S
O312        C313   1.288       .  A
C313        C652   1.480       .  S
O314       Zr326   2.446       .  S
O314        C316   1.289       .  A
O315       Zr350   2.415       .  S
O315        C316   1.285       .  A
C316       C1103   1.485       .  S
O317       Zr326   2.443       .  S
O317        C319   1.289       .  A
O318       Zr349   2.420       .  S
O318        C319   1.286       .  A
C319       C1143   1.486       .  S
O320       Zr323   2.438       .  S
O320        C322   1.288       .  A
O321       Zr350   2.446       .  S
O321        C322   1.289       .  A
C322        C623   1.486       .  S
Zr323       O324   2.435       .  S
Zr323       O325   2.434   1_556  S
Zr323       O329   2.362       .  S
Zr323       O330   2.359       .  S
Zr323       O353   2.370   1_556  S
Zr323       O355   2.368   1_556  S
O324        H367   0.990       .  S
O325        H366   0.990       .  S
O325        H370   0.990       .  S
Zr326       O327   2.435       .  S
Zr326       O328   2.435       .  S
Zr326       O330   2.373       .  S
Zr326       O329   2.369       .  S
Zr326       O354   2.369       .  S
Zr326       O356   2.367       .  S
O327        H368   0.990       .  S
O327        H371   0.990       .  S
O328        H361   0.990       .  S
O329       Zr349   2.380       .  S
O330       Zr350   2.384       .  S
O330        H357   0.966       .  S
O331       Zr343   2.419       .  S
O331        C333   1.284       .  A
O332       Zr350   2.428   1_554  S
O332        C333   1.286       .  A
C333       C1083   1.483       .  S
O334       Zr346   2.461       .  S
O334        C336   1.292       .  A
O335       Zr349   2.420   1_554  S
O335        C336   1.287       .  A
C336        C603   1.482       .  S
O337       Zr346   2.470       .  S
O337        C339   1.293       .  A
O338       Zr350   2.414   1_554  S
O338        C339   1.286       .  A
C339        C732   1.482       .  S
O340       Zr343   2.435       .  S
O340        C342   1.287       .  A
O341       Zr349   2.442   1_554  S
O341        C342   1.289       .  A
C342       C1123   1.489       .  S
Zr343       O344   2.436       .  S
Zr343       O345   2.433       .  S
Zr343       O351   2.368       .  S
Zr343       O352   2.364       .  S
Zr343       O355   2.367       .  S
Zr343       O353   2.374       .  S
O344        H364   0.990       .  S
O344        H369   0.990       .  S
O345        H365   0.990       .  S
Zr346       O347   2.435       .  S
Zr346       O348   2.435   1_554  S
Zr346       O352   2.385       .  S
Zr346       O351   2.382       .  S
Zr346       O356   2.376   1_554  S
Zr346       O354   2.380   1_554  S
O347        H363   0.990       .  S
O348        H362   0.990       .  S
O348        H372   0.990       .  S
Zr349       O352   2.380   1_556  S
Zr349       O354   2.396       .  S
Zr349       O355   2.379   1_556  S
Zr350       O351   2.389   1_556  S
Zr350       O353   2.374   1_556  S
Zr350       O356   2.391       .  S
O351        H359   0.966       .  S
O354        H358   0.966       .  S
O355        H360   0.966       .  S
O373       Zr385   2.430       .  S
O373        C375   1.287       .  A
O374       Zr411   2.417       .  S
O374        C375   1.285       .  A
C375       C1183   1.482       .  S
O376       Zr388   2.423       .  S
O376        C378   1.285       .  A
O377       Zr412   2.436       .  S
O377        C378   1.288       .  A
C378        C583   1.479       .  S
O379       Zr388   2.424       .  S
O379        C381   1.286       .  A
O380       Zr411   2.448   1_554  S
O380        C381   1.290       .  A
C381        C643   1.492       .  S
O382       Zr385   2.428       .  S
O382        C384   1.287       .  A
O383       Zr412   2.420   1_556  S
O383        C384   1.285       .  A
C384        C903   1.479       .  S
Zr385       O386   2.435       .  S
Zr385       O387   2.436       .  S
Zr385       O391   2.373       .  S
Zr385       O392   2.374       .  S
Zr385       O415   2.367       .  S
Zr385       O417   2.364       .  S
O386        H429   0.990       .  S
O387        H428   0.990       .  S
O387        H432   0.990       .  S
Zr388       O389   2.435   1_554  S
Zr388       O390   2.433       .  S
Zr388       O392   2.361   1_554  S
Zr388       O391   2.367   1_554  S
Zr388       O416   2.362       .  S
Zr388       O418   2.365       .  S
O389        H430   0.990       .  S
O389        H433   0.990       .  S
O390        H423   0.990       .  S
O391       Zr411   2.376       .  S
O392       Zr412   2.380   1_556  S
O392        H419   0.966       .  S
O393       Zr405   2.489       .  S
O393        C395   1.297       .  A
O394       Zr412   2.412   1_556  S
O394        C395   1.285       .  A
C395        C752   1.493       .  S
O396       Zr408   2.445       .  S
O396        C398   1.289       .  A
O397       Zr411   2.419   1_554  S
O397        C398   1.286       .  A
C398       C1172   1.483       .  S
O399       Zr408   2.428       .  S
O399        C401   1.286       .  A
O400       Zr412   2.422       .  S
O400        C401   1.286       .  A
C401        C883   1.479       .  S
O402       Zr405   2.466   1_554  S
O402        C404   1.294       .  A
O403       Zr411   2.406   1_554  S
O403        C404   1.285       .  A
C404        C672   1.486       .  S
Zr405       O406   2.434   1_556  S
Zr405       O407   2.436       .  S
Zr405       O413   2.378   1_556  S
Zr405       O414   2.385   1_556  S
Zr405       O417   2.383       .  S
Zr405       O415   2.372       .  S
O406        H426   0.990       .  S
O406        H431   0.990       .  S
O407        H427   0.990       .  S
Zr408       O409   2.434       .  S
Zr408       O410   2.435       .  S
Zr408       O414   2.361       .  S
Zr408       O413   2.376       .  S
Zr408       O418   2.372       .  S
Zr408       O416   2.367       .  S
O409        H425   0.990       .  S
O410        H424   0.990       .  S
O410        H434   0.990       .  S
Zr411       O414   2.389   1_556  S
Zr411       O416   2.374   1_556  S
Zr411       O417   2.392       .  S
Zr412       O413   2.392       .  S
Zr412       O415   2.383   1_554  S
Zr412       O418   2.378       .  S
O413        H421   0.967       .  S
O416        H420   0.966       .  S
O417        H422   0.967       .  S
O435       Zr447   2.441       .  S
O435        C437   1.289       .  A
O436       Zr473   2.429       .  S
O436        C437   1.287       .  A
C437        C632   1.485       .  S
O438       Zr450   2.421       .  S
O438        C440   1.284       .  A
O439       Zr474   2.435       .  S
O439        C440   1.288       .  A
C440        C952   1.481       .  S
O441       Zr450   2.427       .  S
O441        C443   1.285       .  A
O442       Zr473   2.425       .  S
O442        C443   1.287       .  A
C443       C1063   1.481       .  S
O444       Zr447   2.442       .  S
O444        C446   1.289       .  A
O445       Zr474   2.426   1_554  S
O445        C446   1.286   1_554  A
C446        C592   1.480       .  S
Zr447       O448   2.434       .  S
Zr447       O449   2.435   1_556  S
Zr447       O453   2.368       .  S
Zr447       O454   2.363       .  S
Zr447       O477   2.369   1_556  S
Zr447       O479   2.363   1_556  S
O448        H491   0.990       .  S
O449        H490   0.990       .  S
O449        H494   0.990       .  S
Zr450       O451   2.435       .  S
Zr450       O452   2.436       .  S
Zr450       O454   2.371       .  S
Zr450       O453   2.368       .  S
Zr450       O478   2.362       .  S
Zr450       O480   2.367       .  S
O451        H492   0.990       .  S
O451        H495   0.990       .  S
O452        H485   0.990       .  S
O453       Zr473   2.376       .  S
O454       Zr474   2.383       .  S
O454        H481   0.965       .  S
O455       Zr467   2.437       .  S
O455        C457   1.287       .  A
O456       Zr474   2.434   1_554  S
O456        C457   1.288       .  A
C457        C923   1.479       .  S
O458       Zr470   2.468   1_554  S
O458        C460   1.293       .  A
O459       Zr473   2.412   1_554  S
O459        C460   1.286       .  A
C460        C692   1.495       .  S
O461       Zr470   2.472       .  S
O461        C463   1.294       .  A
O462       Zr474   2.397       .  S
O462        C463   1.283       .  A
C463        C563   1.491       .  S
O464       Zr467   2.435       .  S
O464        C466   1.287       .  A
O465       Zr473   2.426   1_554  S
O465        C466   1.287       .  A
C466       C1043   1.480       .  S
Zr467       O468   2.436       .  S
Zr467       O469   2.434       .  S
Zr467       O475   2.371       .  S
Zr467       O476   2.373       .  S
Zr467       O479   2.373       .  S
Zr467       O477   2.375       .  S
O468        H488   0.990       .  S
O468        H493   0.990       .  S
O469        H489   0.990       .  S
Zr470       O471   2.434   1_556  S
Zr470       O472   2.435       .  S
Zr470       O476   2.383   1_556  S
Zr470       O475   2.382   1_556  S
Zr470       O480   2.378       .  S
Zr470       O478   2.375       .  S
O471        H487   0.990       .  S
O472        H486   0.990       .  S
O472        H496   0.990       .  S
Zr473       O476   2.388   1_556  S
Zr473       O478   2.387       .  S
Zr473       O479   2.379   1_556  S
Zr474       O475   2.389   1_556  S
Zr474       O477   2.374   1_556  S
Zr474       O480   2.388       .  S
O475        H483   0.965       .  S
O478        H482   0.965       .  S
O479        H484   0.966       .  S
O497       Zr509   2.431       .  S
O497        C499   1.287       .  A
O498       Zr535   2.424   1_556  S
O498        C499   1.286       .  A
C499       C1272   1.484       .  S
O500       Zr512   2.417       .  S
O500        C502   1.283       .  A
O501       Zr536   2.441       .  S
O501        C502   1.288       .  A
C502        C792   1.471       .  S
O503       Zr512   2.415       .  S
O503        C505   1.283       .  A
O504       Zr535   2.438   1_556  S
O504        C505   1.288       .  A
C505        C712   1.481       .  S
O506       Zr509   2.437       .  S
O506        C508   1.287       .  A
O507       Zr536   2.427       .  S
O507        C508   1.288       .  A
C508        C832   1.482       .  S
Zr509       O510   2.433       .  S
Zr509       O511   2.435       .  S
Zr509       O515   2.371       .  S
Zr509       O516   2.371       .  S
Zr509       O539   2.369       .  S
Zr509       O541   2.366       .  S
O510        H553   0.990       .  S
O511        H552   0.990       .  S
O511        H556   0.990       .  S
Zr512       O513   2.435       .  S
Zr512       O514   2.436   1_556  S
Zr512       O516   2.364       .  S
Zr512       O515   2.364       .  S
Zr512       O540   2.361   1_556  S
Zr512       O542   2.362   1_556  S
O513        H554   0.990       .  S
O513        H557   0.990       .  S
O514        H547   0.990       .  S
O515       Zr535   2.379   1_556  S
O516       Zr536   2.380       .  S
O516        H543   0.966       .  S
O517       Zr529   2.467       .  S
O517        C519   1.292       .  A
O518       Zr536   2.408   1_554  S
O518        C519   1.285       .  A
C519        C572   1.473       .  S
O520       Zr532   2.424       .  S
O520        C522   1.286       .  A
O521       Zr535   2.428       .  S
O521        C522   1.287       .  A
C522       C1243   1.482       .  S
O523       Zr532   2.422       .  S
O523        C525   1.284       .  A
O524       Zr536   2.424   1_554  S
O524        C525   1.286       .  A
C525        C812   1.483       .  S
O526       Zr529   2.472       .  S
O526        C528   1.294       .  A
O527       Zr535   2.408       .  S
O527        C528   1.285       .  A
C528        C612   1.493       .  S
Zr529       O530   2.437       .  S
Zr529       O531   2.434   1_554  S
Zr529       O537   2.382       .  S
Zr529       O538   2.380       .  S
Zr529       O541   2.376   1_554  S
Zr529       O539   2.382   1_554  S
O530        H550   0.990       .  S
O530        H555   0.990       .  S
O531        H551   0.990       .  S
Zr532       O533   2.436       .  S
Zr532       O534   2.435       .  S
Zr532       O538   2.369       .  S
Zr532       O537   2.366       .  S
Zr532       O542   2.367       .  S
Zr532       O540   2.363       .  S
O533        H549   0.990       .  S
O534        H548   0.990       .  S
O534        H558   0.990       .  S
Zr535       O538   2.387       .  S
Zr535       O540   2.374       .  S
Zr535       O541   2.392   1_554  S
Zr536       O537   2.394   1_556  S
Zr536       O539   2.391       .  S
Zr536       O542   2.373   1_556  S
O537        H545   0.967       .  S
O540        H544   0.966       .  S
O541        H546   0.966       .  S
C559        C560   1.398       .  A
C559        C564   1.389       .  A
C559        H569   1.084       .  S
C560        C565   1.480   1_556  S
C560        C561   1.406   1_556  A
C561        C562   1.407       .  A
C561        F566   1.357       .  S
C562        C563   1.410   1_554  A
C562        H567   1.083       .  S
C563        C564   1.415       .  A
C564        F568   1.358       .  S
C565        C570   1.407   1_554  A
C565        C574   1.403       .  A
C570        C571   1.405       .  A
C570        F575   1.357       .  S
C571        C572   1.405   1_556  A
C571        H576   1.083       .  S
C572        C573   1.405       .  A
C573        C574   1.393       .  A
C573        F577   1.358       .  S
C574        H578   1.084       .  S
C579        C580   1.399       .  A
C579        C584   1.391       .  A
C579        H589   1.084       .  S
C580        C585   1.474       .  S
C580        C581   1.405   1_554  A
C581        C582   1.405       .  A
C581        F586   1.357       .  S
C582        C583   1.407   1_556  A
C582        H587   1.083       .  S
C583        C584   1.409       .  A
C584        F588   1.358       .  S
C585        C590   1.405       .  A
C585        C594   1.400   1_554  A
C590        C591   1.405       .  A
C590        F595   1.357       .  S
C591        C592   1.409   1_554  A
C591        H596   1.083       .  S
C592        C593   1.407       .  A
C593        C594   1.391       .  A
C593        F597   1.358       .  S
C594        H598   1.084       .  S
C599        C600   1.403       .  A
C599        C604   1.394       .  A
C599        H609   1.084       .  S
C600        C605   1.487   1_565  S
C600        C601   1.409   1_554  A
C601        C602   1.407       .  A
C601        F606   1.357       .  S
C602        C603   1.407   1_556  A
C602        H607   1.083       .  S
C603        C604   1.406       .  A
C604        F608   1.358       .  S
C605        C610   1.407       .  A
C605        C614   1.402   1_554  A
C610        C611   1.407       .  A
C610        F615   1.357       .  S
C611        C612   1.409       .  A
C611        H616   1.083       .  S
C612        C613   1.413   1_554  A
C613        C614   1.394       .  A
C613        F617   1.358       .  S
C614        H618   1.084       .  S
C619        C620   1.405   1_554  A
C619        C624   1.407       .  A
C619        H629   1.083       .  S
C620        C625   1.481       .  S
C620        C621   1.403       .  A
C621        C622   1.396       .  A
C621        F626   1.358       .  S
C622        C623   1.406       .  A
C622        H627   1.083       .  S
C623        C624   1.410   1_556  A
C624        F628   1.357       .  S
C625        C630   1.402   1_556  A
C625        C634   1.405       .  A
C630        C631   1.392       .  A
C630        F635   1.357       .  S
C631        C632   1.405   1_554  A
C631        H636   1.083       .  S
C632        C633   1.412       .  A
C633        C634   1.408       .  A
C633        F637   1.357       .  S
C634        H638   1.083       .  S
C639        C640   1.405       .  A
C639        C644   1.408       .  A
C639        H649   1.083       .  S
C640        C645   1.482       .  S
C640        C641   1.403   1_556  A
C641        C642   1.392       .  A
C641        F646   1.359       .  S
C642        C643   1.409       .  A
C642        H647   1.083       .  S
C643        C644   1.412   1_554  A
C644        F648   1.357       .  S
C645        C650   1.406   1_556  A
C645        C654   1.403       .  A
C650        C651   1.404       .  A
C650        F655   1.357       .  S
C651        C652   1.407   1_554  A
C651        H656   1.083       .  S
C652        C653   1.407       .  A
C653        C654   1.394       .  A
C653        F657   1.358       .  S
C654        H658   1.084       .  S
C659        C660   1.406   1_554  A
C659        C664   1.407       .  A
C659        H669   1.083       .  S
C660        C665   1.485   1_546  S
C660        C661   1.405       .  A
C661        C662   1.394       .  A
C661        F666   1.358       .  S
C662        C663   1.405       .  A
C662        H667   1.083       .  S
C663        C664   1.411   1_556  A
C664        F668   1.357       .  S
C665        C670   1.407   1_554  A
C665        C674   1.402       .  A
C670        C671   1.405       .  A
C670        F675   1.357       .  S
C671        C672   1.408   1_556  A
C671        H676   1.083       .  S
C672        C673   1.411       .  A
C673        C674   1.393       .  A
C673        F677   1.359       .  S
C674        H678   1.084       .  S
C679        C680   1.403       .  A
C679        C684   1.394       .  A
C679        H689   1.084       .  S
C680        C685   1.489   1_655  S
C680        C681   1.410   1_554  A
C681        C682   1.409       .  A
C681        F686   1.357       .  S
C682        C683   1.407   1_556  A
C682        H687   1.083       .  S
C683        C684   1.407       .  A
C684        F688   1.358       .  S
C685        C690   1.405   1_554  A
C685        C694   1.406       .  A
C690        C691   1.394       .  A
C690        F695   1.358       .  S
C691        C692   1.408   1_556  A
C691        H696   1.083       .  S
C692        C693   1.413       .  A
C693        C694   1.408       .  A
C693        F697   1.357       .  S
C694        H698   1.083       .  S
C699        C700   1.400       .  A
C699        C704   1.392       .  A
C699        H709   1.084       .  S
C700        C705   1.478       .  S
C700        C701   1.406   1_554  A
C701        C702   1.406       .  A
C701        F706   1.357       .  S
C702        C703   1.407   1_556  A
C702        H707   1.083       .  S
C703        C704   1.412       .  A
C704        F708   1.358       .  S
C705        C710   1.406       .  A
C705        C714   1.400   1_554  A
C710        C711   1.405       .  A
C710        F715   1.357       .  S
C711        C712   1.407   1_554  A
C711        H716   1.083       .  S
C712        C713   1.410       .  A
C713        C714   1.390       .  A
C713        F717   1.358       .  S
C714        H718   1.084       .  S
C719        C720   1.406   1_554  A
C719        C724   1.407       .  A
C719        H729   1.083       .  S
C720        C725   1.486   1_656  S
C720        C721   1.405       .  A
C721        C722   1.393       .  A
C721        F726   1.358       .  S
C722        C723   1.408       .  A
C722        H727   1.083       .  S
C723        C724   1.411   1_556  A
C724        F728   1.357       .  S
C725        C730   1.408   1_554  A
C725        C734   1.403       .  A
C730        C731   1.408       .  A
C730        F735   1.357       .  S
C731        C732   1.407   1_556  A
C731        H736   1.083       .  S
C732        C733   1.407       .  A
C733        C734   1.394       .  A
C733        F737   1.358       .  S
C734        H738   1.084       .  S
C739        C740   1.401   1_554  A
C739        C744   1.396       .  A
C739        H749   1.084       .  S
C740        C745   1.489       .  S
C740        C741   1.408       .  A
C741        C742   1.410       .  A
C741        F746   1.357       .  S
C742        C743   1.409       .  A
C742        H747   1.083       .  S
C743        C744   1.412   1_556  A
C744        F748   1.358       .  S
C745        C750   1.405       .  A
C745        C754   1.407   1_556  A
C750        C751   1.398       .  A
C750        F755   1.358       .  S
C751        C752   1.408       .  A
C751        H756   1.084       .  S
C752        C753   1.410   1_556  A
C753        C754   1.410       .  A
C753        F757   1.357       .  S
C754        H758   1.083       .  S
C759        C760   1.404   1_556  A
C759        C764   1.401       .  A
C759        H769   1.083       .  S
C760        C765   1.479       .  S
C760        C761   1.405       .  A
C761        C762   1.401       .  A
C761        F766   1.357       .  S
C762        C763   1.404   1_554  A
C762        H767   1.083       .  S
C763        C764   1.406       .  A
C764        F768   1.358       .  S
C765        C770   1.402       .  A
C765        C774   1.406   1_554  A
C770        C771   1.394       .  A
C770        F775   1.358       .  S
C771        C772   1.405       .  A
C771        H776   1.084       .  S
C772        C773   1.407   1_554  A
C773        C774   1.406       .  A
C773        F777   1.357       .  S
C774        H778   1.083       .  S
C779        C780   1.403   1_556  A
C779        C784   1.398       .  A
C779        H789   1.083       .  S
C780        C785   1.475   1_554  S
C780        C781   1.406       .  A
C781        C782   1.398       .  A
C781        F786   1.358       .  S
C782        C783   1.402       .  A
C782        H787   1.084       .  S
C783        C784   1.405   1_554  A
C784        F788   1.358       .  S
C785        C790   1.406   1_556  A
C785        C794   1.401       .  A
C790        C791   1.403       .  A
C790        F795   1.357       .  S
C791        C792   1.404   1_554  A
C791        H796   1.083       .  S
C792        C793   1.406       .  A
C793        C794   1.393       .  A
C793        F797   1.358       .  S
C794        H798   1.084       .  S
C799        C800   1.402       .  A
C799        C804   1.396       .  A
C799        H809   1.083       .  S
C800        C805   1.477       .  S
C800        C801   1.407       .  A
C801        C802   1.395       .  A
C801        F806   1.358       .  S
C802        C803   1.404       .  A
C802        H807   1.083       .  S
C803        C804   1.410       .  A
C804        F808   1.358       .  S
C805        C810   1.407       .  A
C805        C814   1.398       .  A
C810        C811   1.401       .  A
C810        F815   1.358       .  S
C811        C812   1.408       .  A
C811        H816   1.083       .  S
C812        C813   1.413       .  A
C813        C814   1.388       .  A
C813        F817   1.357       .  S
C814        H818   1.084       .  S
C819        C820   1.406       .  A
C819        C824   1.398       .  A
C819        H829   1.083       .  S
C820        C825   1.484       .  S
C820        C821   1.408       .  A
C821        C822   1.395       .  A
C821        F826   1.357       .  S
C822        C823   1.402       .  A
C822        H827   1.083       .  S
C823        C824   1.408       .  A
C824        F828   1.358       .  S
C825        C830   1.407       .  A
C825        C834   1.405       .  A
C830        C831   1.397       .  A
C830        F835   1.357       .  S
C831        C832   1.405       .  A
C831        H836   1.083       .  S
C832        C833   1.410       .  A
C833        C834   1.398       .  A
C833        F837   1.358       .  S
C834        H838   1.083       .  S
C839        C840   1.405       .  A
C839        C844   1.399       .  A
C839        H849   1.083       .  S
C840        C845   1.482       .  S
C840        C841   1.406       .  A
C841        C842   1.395       .  A
C841        F846   1.358       .  S
C842        C843   1.406       .  A
C842        H847   1.083       .  S
C843        C844   1.408       .  A
C844        F848   1.358       .  S
C845        C850   1.405       .  A
C845        C854   1.406       .  A
C850        C851   1.395       .  A
C850        F855   1.357       .  S
C851        C852   1.406       .  A
C851        H856   1.084       .  S
C852        C853   1.407       .  A
C853        C854   1.397       .  A
C853        F857   1.358       .  S
C854        H858   1.083       .  S
C859        C860   1.403       .  A
C859        C864   1.392       .  A
C859        H869   1.083       .  S
C860        C865   1.480       .  S
C860        C861   1.405       .  A
C861        C862   1.399       .  A
C861        F866   1.357       .  S
C862        C863   1.409       .  A
C862        H867   1.083       .  S
C863        C864   1.410       .  A
C864        F868   1.358       .  S
C865        C870   1.404       .  A
C865        C874   1.406       .  A
C870        C871   1.391       .  A
C870        F875   1.358       .  S
C871        C872   1.404       .  A
C871        H876   1.083       .  S
C872        C873   1.409       .  A
C873        C874   1.402       .  A
C873        F877   1.357       .  S
C874        H878   1.083       .  S
C879        C880   1.406       .  A
C879        C884   1.400       .  A
C879        H889   1.083       .  S
C880        C885   1.481       .  S
C880        C881   1.405       .  A
C881        C882   1.391       .  A
C881        F886   1.358       .  S
C882        C883   1.405       .  A
C882        H887   1.083       .  S
C883        C884   1.408       .  A
C884        F888   1.357       .  S
C885        C890   1.404       .  A
C885        C894   1.404       .  A
C890        C891   1.397       .  A
C890        F895   1.357       .  S
C891        C892   1.409       .  A
C891        H896   1.083       .  S
C892        C893   1.411       .  A
C893        C894   1.396       .  A
C893        F897   1.357       .  S
C894        H898   1.083       .  S
C899        C900   1.402       .  A
C899        C904   1.399       .  A
C899        H909   1.083       .  S
C900        C905   1.470       .  S
C900        C901   1.401       .  A
C901        C902   1.389       .  A
C901        F906   1.358       .  S
C902        C903   1.407       .  A
C902        H907   1.083       .  S
C903        C904   1.411       .  A
C904        F908   1.357       .  S
C905        C910   1.403       .  A
C905        C914   1.401       .  A
C910        C911   1.391       .  A
C910        F915   1.357       .  S
C911        C912   1.403       .  A
C911        H916   1.083       .  S
C912        C913   1.411       .  A
C913        C914   1.396       .  A
C913        F917   1.357       .  S
C914        H918   1.084       .  S
C919        C920   1.404       .  A
C919        C924   1.399       .  A
C919        H929   1.083       .  S
C920        C925   1.479       .  S
C920        C921   1.405       .  A
C921        C922   1.397       .  A
C921        F926   1.358       .  S
C922        C923   1.405       .  A
C922        H927   1.083       .  S
C923        C924   1.409       .  A
C924        F928   1.358       .  S
C925        C930   1.406       .  A
C925        C934   1.403       .  A
C930        C931   1.395       .  A
C930        F935   1.357       .  S
C931        C932   1.403       .  A
C931        H936   1.083       .  S
C932        C933   1.410       .  A
C933        C934   1.397       .  A
C933        F937   1.358       .  S
C934        H938   1.083       .  S
C939        C940   1.400       .  A
C939        C944   1.393       .  A
C939        H949   1.083       .  S
C940        C945   1.473       .  S
C940        C941   1.406       .  A
C941        C942   1.394       .  A
C941        F946   1.358       .  S
C942        C943   1.403       .  A
C942        H947   1.083       .  S
C943        C944   1.409       .  A
C944        F948   1.356       .  S
C945        C950   1.407       .  A
C945        C954   1.397       .  A
C950        C951   1.402       .  A
C950        F955   1.358       .  S
C951        C952   1.407       .  A
C951        H956   1.083       .  S
C952        C953   1.413       .  A
C953        C954   1.386       .  A
C953        F957   1.356       .  S
C954        H958   1.084       .  S
C959        C960   1.401       .  A
C959        C964   1.391       .  A
C959        H969   1.083       .  S
C960        C965   1.481       .  S
C960        C961   1.407       .  A
C961        C962   1.400       .  A
C961        F966   1.357       .  S
C962        C963   1.408       .  A
C962        H967   1.083       .  S
C963        C964   1.412       .  A
C964        F968   1.358       .  S
C965        C970   1.407       .  A
C965        C974   1.404       .  A
C970        C971   1.395       .  A
C970        F975   1.357       .  S
C971        C972   1.403       .  A
C971        H976   1.083       .  S
C972        C973   1.410       .  A
C973        C974   1.398       .  A
C973        F977   1.358       .  S
C974        H978   1.083       .  S
C979        C980   1.405       .  A
C979        C984   1.402       .  A
C979        H989   1.083       .  S
C980        C985   1.482       .  S
C980        C981   1.404       .  A
C981        C982   1.394       .  A
C981        F986   1.358       .  S
C982        C983   1.408       .  A
C982        H987   1.083       .  S
C983        C984   1.412       .  A
C984        F988   1.357       .  S
C985        C990   1.407       .  A
C985        C994   1.402       .  A
C990        C991   1.396       .  A
C990        F995   1.357       .  S
C991        C992   1.405       .  A
C991        H996   1.083       .  S
C992        C993   1.413       .  A
C993        C994   1.398       .  A
C993        F997   1.358       .  S
C994        H998   1.083       .  S
C999       C1000   1.406       .  A
C999       C1004   1.398       .  A
C999       H1009   1.083       .  S
C1000      C1005   1.484       .  S
C1000      C1001   1.408       .  A
C1001      C1002   1.396       .  A
C1001      F1006   1.357       .  S
C1002      C1003   1.404       .  A
C1002      H1007   1.084       .  S
C1003      C1004   1.406       .  A
C1004      F1008   1.358       .  S
C1005      C1010   1.408       .  A
C1005      C1014   1.403       .  A
C1010      C1011   1.399       .  A
C1010      F1015   1.357       .  S
C1011      C1012   1.406       .  A
C1011      H1016   1.083       .  S
C1012      C1013   1.411       .  A
C1013      C1014   1.396       .  A
C1013      F1017   1.357       .  S
C1014      H1018   1.083       .  S
C1019      C1020   1.406       .  A
C1019      C1024   1.403       .  A
C1019      H1029   1.083       .  S
C1020      C1025   1.479       .  S
C1020      C1021   1.403       .  A
C1021      C1022   1.391       .  A
C1021      F1026   1.358       .  S
C1022      C1023   1.406       .  A
C1022      H1027   1.083       .  S
C1023      C1024   1.409       .  A
C1024      F1028   1.357       .  S
C1025      C1030   1.404       .  A
C1025      C1034   1.403       .  A
C1030      C1031   1.398       .  A
C1030      F1035   1.357       .  S
C1031      C1032   1.409       .  A
C1031      H1036   1.083       .  S
C1032      C1033   1.411       .  A
C1033      C1034   1.395       .  A
C1033      F1037   1.358       .  S
C1034      H1038   1.083       .  S
C1039      C1040   1.403       .  A
C1039      C1044   1.395       .  A
C1039      H1049   1.083       .  S
C1040      C1045   1.482       .  S
C1040      C1041   1.407       .  A
C1041      C1042   1.398       .  A
C1041      F1046   1.357       .  S
C1042      C1043   1.406       .  A
C1042      H1047   1.083       .  S
C1043      C1044   1.408       .  A
C1044      F1048   1.358       .  S
C1045      C1050   1.405       .  A
C1045      C1054   1.405       .  A
C1050      C1051   1.396       .  A
C1050      F1055   1.357       .  S
C1051      C1052   1.406       .  A
C1051      H1056   1.081       .  S
C1052      C1053   1.407       .  A
C1053      C1054   1.396       .  A
C1053      F1057   1.358       .  S
C1054      H1058   1.083       .  S
C1059      C1060   1.402       .  A
C1059      C1064   1.394       .  A
C1059      H1069   1.083       .  S
C1060      C1065   1.478       .  S
C1060      C1061   1.406       .  A
C1061      C1062   1.398       .  A
C1061      F1066   1.358       .  S
C1062      C1063   1.406       .  A
C1062      H1067   1.082       .  S
C1063      C1064   1.410       .  A
C1064      F1068   1.358       .  S
C1065      C1070   1.408       .  A
C1065      C1074   1.403       .  A
C1070      C1071   1.396       .  A
C1070      F1075   1.358       .  S
C1071      C1072   1.401       .  A
C1071      H1076   1.084       .  S
C1072      C1073   1.406       .  A
C1073      C1074   1.396       .  A
C1073      F1077   1.358       .  S
C1074      H1078   1.083       .  S
C1079      C1080   1.406       .  A
C1079      C1084   1.401       .  A
C1079      H1089   1.083       .  S
C1080      C1085   1.478       .  S
C1080      C1081   1.402       .  A
C1081      C1082   1.389       .  A
C1081      F1086   1.358       .  S
C1082      C1083   1.408       .  A
C1082      H1087   1.083       .  S
C1083      C1084   1.410       .  A
C1084      F1088   1.357       .  S
C1085      C1090   1.407       .  A
C1085      C1094   1.402       .  A
C1090      C1091   1.394       .  A
C1090      F1095   1.358       .  S
C1091      C1092   1.404       .  A
C1091      H1096   1.083       .  S
C1092      C1093   1.410       .  A
C1093      C1094   1.396       .  A
C1093      F1097   1.358       .  S
C1094      H1098   1.083       .  S
C1099      C1100   1.402       .  A
C1099      C1104   1.398       .  A
C1099      H1109   1.083       .  S
C1100      C1105   1.474       .  S
C1100      C1101   1.403       .  A
C1101      C1102   1.393       .  A
C1101      F1106   1.358       .  S
C1102      C1103   1.408       .  A
C1102      H1107   1.083       .  S
C1103      C1104   1.413       .  A
C1104      F1108   1.357       .  S
C1105      C1110   1.407       .  A
C1105      C1114   1.402       .  A
C1110      C1111   1.397       .  A
C1110      F1115   1.358       .  S
C1111      C1112   1.403       .  A
C1111      H1116   1.084       .  S
C1112      C1113   1.405       .  A
C1113      C1114   1.394       .  A
C1113      F1117   1.358       .  S
C1114      H1118   1.083       .  S
C1119      C1120   1.402       .  A
C1119      C1124   1.395       .  A
C1119      H1129   1.083       .  S
C1120      C1125   1.490       .  S
C1120      C1121   1.410       .  A
C1121      C1122   1.405       .  A
C1121      F1126   1.357       .  S
C1122      C1123   1.407       .  A
C1122      H1127   1.083       .  S
C1123      C1124   1.412       .  A
C1124      F1128   1.358       .  S
C1125      C1130   1.408       .  A
C1125      C1134   1.404       .  A
C1130      C1131   1.400       .  A
C1130      F1135   1.358       .  S
C1131      C1132   1.408       .  A
C1131      H1136   1.083       .  S
C1132      C1133   1.413       .  A
C1133      C1134   1.402       .  A
C1133      F1137   1.357       .  S
C1134      H1138   1.083       .  S
C1139      C1140   1.404       .  A
C1139      C1144   1.396       .  A
C1139      H1149   1.083       .  S
C1140      C1145   1.487       .  S
C1140      C1141   1.408       .  A
C1141      C1142   1.400       .  A
C1141      F1146   1.358       .  S
C1142      C1143   1.408       .  A
C1142      H1147   1.083       .  S
C1143      C1144   1.410       .  A
C1144      F1148   1.357       .  S
C1145      C1150   1.410       .  A
C1145      C1154   1.405       .  A
C1150      C1151   1.398       .  A
C1150      F1155   1.358       .  S
C1151      C1152   1.402       .  A
C1151      H1156   1.084       .  S
C1152      C1153   1.407       .  A
C1153      C1154   1.399       .  A
C1153      F1157   1.358       .  S
C1154      H1158   1.083       .  S
C1159      C1160   1.405       .  A
C1159      C1164   1.400       .  A
C1159      H1169   1.083       .  S
C1160      C1165   1.486       .  S
C1160      C1161   1.408       .  A
C1161      C1162   1.396       .  A
C1161      F1166   1.357       .  S
C1162      C1163   1.404       .  A
C1162      H1167   1.083       .  S
C1163      C1164   1.410       .  A
C1164      F1168   1.358       .  S
C1165      C1170   1.407       .  A
C1165      C1174   1.405       .  A
C1170      C1171   1.399       .  A
C1170      F1175   1.357       .  S
C1171      C1172   1.407       .  A
C1171      H1176   1.083       .  S
C1172      C1173   1.409       .  A
C1173      C1174   1.398       .  A
C1173      F1177   1.358       .  S
C1174      H1178   1.083       .  S
C1179      C1180   1.407       .  A
C1179      C1184   1.399       .  A
C1179      H1189   1.083       .  S
C1180      C1185   1.485       .  S
C1180      C1181   1.407       .  A
C1181      C1182   1.391       .  A
C1181      F1186   1.357       .  S
C1182      C1183   1.406       .  A
C1182      H1187   1.083       .  S
C1183      C1184   1.410       .  A
C1184      F1188   1.358       .  S
C1185      C1190   1.409       .  A
C1185      C1194   1.406       .  A
C1190      C1191   1.397       .  A
C1190      F1195   1.357       .  S
C1191      C1192   1.404       .  A
C1191      H1196   1.083       .  S
C1192      C1193   1.405       .  A
C1193      C1194   1.394       .  A
C1193      F1197   1.358       .  S
C1194      H1198   1.083       .  S
C1199      C1200   1.405       .  A
C1199      C1204   1.400       .  A
C1199      H1209   1.083       .  S
C1200      C1205   1.481       .  S
C1200      C1201   1.404       .  A
C1201      C1202   1.392       .  A
C1201      F1206   1.357       .  S
C1202      C1203   1.407       .  A
C1202      H1207   1.083       .  S
C1203      C1204   1.412       .  A
C1204      F1208   1.358       .  S
C1205      C1210   1.407       .  A
C1205      C1214   1.405       .  A
C1210      C1211   1.398       .  A
C1210      F1215   1.358       .  S
C1211      C1212   1.404       .  A
C1211      H1216   1.083       .  S
C1212      C1213   1.406       .  A
C1213      C1214   1.396       .  A
C1213      F1217   1.358       .  S
C1214      H1218   1.083       .  S
C1219      C1220   1.404       .  A
C1219      C1224   1.398       .  A
C1219      H1229   1.083       .  S
C1220      C1225   1.478       .  S
C1220      C1221   1.404       .  A
C1221      C1222   1.394       .  A
C1221      F1226   1.358       .  S
C1222      C1223   1.407       .  A
C1222      H1227   1.083       .  S
C1223      C1224   1.410       .  A
C1224      F1228   1.357       .  S
C1225      C1230   1.406       .  A
C1225      C1234   1.402       .  A
C1230      C1231   1.395       .  A
C1230      F1235   1.358       .  S
C1231      C1232   1.406       .  A
C1231      H1236   1.083       .  S
C1232      C1233   1.410       .  A
C1233      C1234   1.397       .  A
C1233      F1237   1.357       .  S
C1234      H1238   1.083       .  S
C1239      C1240   1.404       .  A
C1239      C1244   1.397       .  A
C1239      H1249   1.083       .  S
C1240      C1245   1.480       .  S
C1240      C1241   1.405       .  A
C1241      C1242   1.395       .  A
C1241      F1246   1.358       .  S
C1242      C1243   1.408       .  A
C1242      H1247   1.083       .  S
C1243      C1244   1.409       .  A
C1244      F1248   1.357       .  S
C1245      C1250   1.406       .  A
C1245      C1254   1.406       .  A
C1250      C1251   1.394       .  A
C1250      F1255   1.357       .  S
C1251      C1252   1.402       .  A
C1251      H1256   1.084       .  S
C1252      C1253   1.406       .  A
C1253      C1254   1.397       .  A
C1253      F1257   1.358       .  S
C1254      H1258   1.083       .  S
C1259      C1260   1.404       .  A
C1259      C1264   1.395       .  A
C1259      H1269   1.083       .  S
C1260      C1265   1.485       .  S
C1260      C1261   1.407       .  A
C1261      C1262   1.400       .  A
C1261      F1266   1.357       .  S
C1262      C1263   1.407       .  A
C1262      H1267   1.083       .  S
C1263      C1264   1.408       .  A
C1264      F1268   1.357       .  S
C1265      C1270   1.405       .  A
C1265      C1274   1.406       .  A
C1270      C1271   1.391       .  A
C1270      F1275   1.358       .  S
C1271      C1272   1.406       .  A
C1271      H1276   1.083       .  S
C1272      C1273   1.410       .  A
C1273      C1274   1.402       .  A
C1273      F1277   1.357       .  S
C1274      H1278   1.083       .  S
