geometry optimzed in LAMMPS
_audit_creation_date              2020-11-30 
_audit_creation_method            'lammps2cif' 
_symmetry_space_group_name_H-M    'P1' 
_symmetry_Int_Tables_number       1 
_symmetry_cell_setting            triclinic 
loop_ 
_symmetry_equiv_pos_as_xyz 
  x,y,z 
_cell_length_a                    58.89113561871814 
_cell_length_b                    58.847079774429986 
_cell_length_c                    25.66851620926574 
_cell_angle_alpha                 89.98069679901876 
_cell_angle_beta                  90.01769207182758 
_cell_angle_gamma                 120.08883129927452 
loop_ 
_atom_site_label 
_atom_site_type_symbol 
_atom_site_fract_x 
_atom_site_fract_y 
_atom_site_fract_z 
_atom_site_charge 
O1          O  0.21434617  0.46928754  0.33459259    -0.80890
O2          O  0.26289218  0.46833423  0.16613998    -0.80910
O3          O  0.19596745  0.48375943  0.20758073    -0.80920
O4          O  0.30394389  0.48276381  0.30042221    -0.80860
O5          O  0.21687904  0.46762477  0.16765429    -0.80980
O6          O  0.26417707  0.46854351  0.33307569    -0.80900
O7          O  0.29957588  0.48483496  0.20748044    -0.80890
O8          O  0.18998010  0.48435263  0.30014730    -0.80920
C9          C  0.19192194  0.46868070  0.33026651     1.08800
C10         C  0.28433062  0.46885849  0.17510317     1.08690
C11         C  0.19560992  0.46740933  0.17654008     1.08830
C12         C  0.28550767  0.46702932  0.32923653     1.08700
O13         O  0.29313318  0.02650402  0.35047575    -0.80890
O14         O  0.24319962  0.02548505  0.15497021    -0.80960
O15         O  0.22516179  0.02970327  0.28042602    -0.80900
O16         O  0.31429410  0.02610327  0.22775064    -0.80880
O17         O  0.29273667  0.02631478  0.15562506    -0.80930
O18         O  0.24539220  0.02747528  0.35000358    -0.80900
O19         O  0.31517111  0.02886360  0.28032198    -0.80860
O20         O  0.22309502  0.02658543  0.22841487    -0.80930
Co21       Co  0.25474409  0.49889354  0.33168178     1.51530
Co22       Co  0.25442984  0.99797580  0.16752406     1.51690
Co23       Co  0.22198480  0.49560483  0.26483517     1.51570
Co24       Co  0.28409221  0.99508919  0.26448997     1.51470
O25         O  0.25887212  0.50686851  0.24688795    -1.42820
C26         C  0.31511252  0.03597475  0.32656637     1.08730
C27         C  0.23039779  0.03402420  0.18130957     1.08820
C28         C  0.23306427  0.03720152  0.32633785     1.08760
C29         C  0.31418338  0.03451983  0.18149041     1.08730
O30         O  0.47800622  0.26043941  0.34998958    -0.80890
O31         O  0.47888566  0.21193377  0.15469656    -0.80910
O32         O  0.47774767  0.28136251  0.22747682    -0.80920
O33         O  0.47638177  0.18975699  0.27939196    -0.80860
O34         O  0.47866208  0.26080954  0.15457622    -0.80980
O35         O  0.47821530  0.21179432  0.34944809    -0.80900
O36         O  0.47893375  0.19058849  0.22711301    -0.80890
O37         O  0.47510432  0.27962195  0.27939266    -0.80920
C38         C  0.46836205  0.27280748  0.32602177     1.08800
C39         C  0.47071039  0.19054237  0.18072724     1.08690
C40         C  0.46992779  0.27346859  0.18075898     1.08830
C41         C  0.46915235  0.18980156  0.32558346     1.08700
O42         O  0.03602773  0.23991798  0.33370549    -0.80890
O43         O  0.03658364  0.28815542  0.16679964    -0.80960
O44         O  0.02036307  0.31481538  0.29893348    -0.80900
O45         O  0.02103763  0.20583265  0.20628914    -0.80880
O46         O  0.03672588  0.24275046  0.16597430    -0.80930
O47         O  0.03572758  0.29055839  0.33305527    -0.80900
O48         O  0.02178702  0.20069852  0.29827554    -0.80860
O49         O  0.02027116  0.30892742  0.20647605    -0.80930
Co50       Co  0.00603251  0.25016895  0.33107163     1.51530
Co51       Co  0.00668016  0.25040744  0.16685364     1.51690
Co52       Co  0.00908103  0.28286165  0.26343053     1.51570
Co53       Co  0.00996215  0.22088079  0.26296582     1.51470
O54         O  0.99792543  0.24595890  0.24620759    -1.42820
C55         C  0.03696494  0.21823501  0.32910989     1.08730
C56         C  0.03669514  0.30938644  0.17562859     1.08820
C57         C  0.03608801  0.31291351  0.32897195     1.08760
C58         C  0.03705369  0.22170670  0.17471722     1.08730
O59         O  0.24605783  0.20943919  0.33188094    -0.80890
O60         O  0.29324508  0.25620557  0.16741787    -0.80910
O61         O  0.21038942  0.19067140  0.20732888    -0.80920
O62         O  0.32055428  0.29947927  0.29947171    -0.80860
O63         O  0.24718305  0.21075757  0.16641958    -0.80980
O64         O  0.29589492  0.25996664  0.33370007    -0.80900
O65         O  0.31441440  0.29328870  0.20737565    -0.80890
O66         O  0.20611284  0.18398051  0.29981588    -0.80920
C67         C  0.22461541  0.18662488  0.32824527     1.08800
C68         C  0.31459621  0.27727783  0.17625304     1.08690
C69         C  0.22570480  0.18983581  0.17547140     1.08830
C70         C  0.31841925  0.28173440  0.32940965     1.08700
O71         O  0.26521056  0.28720307  0.34977495    -0.80890
O72         O  0.21738718  0.23883842  0.15549235    -0.80960
O73         O  0.19512739  0.21896259  0.28026928    -0.80900
O74         O  0.28771154  0.30888541  0.22802561    -0.80880
O75         O  0.26711826  0.28769321  0.15484007    -0.80930
O76         O  0.21720970  0.23815759  0.35071225    -0.80900
O77         O  0.28557689  0.30978951  0.28029144    -0.80860
O78         O  0.19592339  0.21714897  0.22777667    -0.80930
Co79       Co  0.25559278  0.24921730  0.33124559     1.51530
Co80       Co  0.25572031  0.24889771  0.16738743     1.51690
Co81       Co  0.22609319  0.21632131  0.26428076     1.51570
Co82       Co  0.28841471  0.27881722  0.26442568     1.51470
O83         O  0.25138806  0.25336699  0.24670087    -1.42820
C84         C  0.27778536  0.30932669  0.32625210     1.08730
C85         C  0.19596518  0.22556130  0.18146052     1.08820
C86         C  0.19518932  0.22562157  0.32687911     1.08760
C87         C  0.28033455  0.30907225  0.18102324     1.08730
C88         C  0.45002969  0.27983594  0.35164500     0.41710
N89         N  0.41617509  0.27407458  0.39384071     0.00600
C90         C  0.39016049  0.35333537  0.05382291    -0.07280
H91         H  0.47925281  0.35512482  0.09742714     0.06090
C92         C  0.42449985  0.25706644  0.13955387    -0.07630
Co93       Co  0.41712621  0.32154711  0.43967582     0.74180
N94         N  0.44986660  0.33846568  0.03723666    -0.26810
Co95       Co  0.41475011  0.31827805  0.07843029     0.74070
C96         C  0.44914111  0.27787168  0.15826386     0.41810
N97         N  0.39634509  0.23526795  0.02687009     0.00210
N98         N  0.42856934  0.29477254  0.11790777     0.00320
N99         N  0.39179618  0.35482775  0.46568651    -0.47650
H100        H  0.47083725  0.32487174  0.36595871     0.06080
N101        N  0.45109355  0.33971448  0.48559361     0.00610
N102        N  0.37727251  0.29638039  0.11677875     0.00350
C103        C  0.33962980  0.28107351  0.15500927     0.41950
N104        N  0.39690417  0.23636673  0.47586775    -0.26260
C105        C  0.36621332  0.30987861  0.37158477    -0.07180
N106        N  0.42611763  0.26184166  0.36733942    -0.47370
N107        N  0.36194495  0.30377120  0.14122470    -0.47590
C108        C  0.34238327  0.28545426  0.35531671     0.41720
N109        N  0.40227084  0.34115650  0.48449750     0.00590
N110        N  0.34778926  0.23746393  0.47554966    -0.26280
N111        N  0.43155036  0.29974448  0.39661694    -0.26780
N112        N  0.34748637  0.23690206  0.02655567     0.00230
H113        H  0.31696562  0.22513603  0.41848638     0.06120
H114        H  0.32891895  0.23870198  0.14132612     0.06160
N115        N  0.40134097  0.33980014  0.03615181    -0.26830
N116        N  0.41362590  0.26912604  0.11447035    -0.26440
N117        N  0.36833151  0.27600489  0.39518777     0.00600
C118        C  0.49077409  0.36260446  0.51098141     0.41990
C119        C  0.41225774  0.22748016  0.45887652    -0.07690
N120        N  0.36568908  0.27066602  0.11392977    -0.26440
H121        H  0.41652522  0.23608903  0.14253017     0.06140
N122        N  0.47545185  0.35406732  0.46822326    -0.47660
H123        H  0.41616255  0.22516731  0.41892071     0.06130
C124        C  0.30746251  0.22144562  0.00528086     0.41830
C125        C  0.45386783  0.30548775  0.37039468    -0.07190
Co126      Co  0.38182909  0.25514500  0.43444201     0.73820
N127        N  0.41059260  0.22575685  0.04582978    -0.47380
C128        C  0.38385347  0.36313085  0.00713217     0.42100
N129        N  0.34550845  0.26557491  0.37090490    -0.47370
Co130      Co  0.38041945  0.25226661  0.07077330     0.73890
C131        C  0.34264769  0.25953522  0.13826204    -0.07700
C132        C  0.47410031  0.35240049  0.05655751    -0.07260
N133        N  0.38112390  0.30185731  0.39683854    -0.26790
N134        N  0.45070335  0.30108728  0.14385951    -0.47550
H135        H  0.38631044  0.35543209  0.09420424     0.06100
C136        C  0.32332660  0.22798277  0.45858663    -0.07670
Cl137      Cl  0.39878983  0.28720389  0.00583610    -0.50670
C138        C  0.42137336  0.22051080  0.00508977     0.41860
H139        H  0.37073444  0.33000767  0.36735028     0.06070
N140        N  0.32384299  0.22766436  0.04571499    -0.47380
C141        C  0.34035425  0.05483023  0.35179658     0.41710
N142        N  0.36782472  0.08882711  0.39433697     0.00600
C143        C  0.47374815  0.11558707  0.05442546    -0.07280
H144        H  0.38487711  0.02451191  0.09301816     0.06090
C145        C  0.34285666  0.07978539  0.13985125    -0.07630
Co146      Co  0.41568727  0.08953516  0.43830402     0.74180
N147        N  0.39934512  0.05525659  0.03496236    -0.26810
Co148      Co  0.41396506  0.09053063  0.07767842     0.74070
C149        C  0.33937275  0.05538203  0.15899054     0.41810
N150        N  0.34865043  0.10749383  0.02691492     0.00210
N151        N  0.37648653  0.07596907  0.11721807     0.00320
N152        N  0.47477426  0.11514069  0.46627898    -0.47650
H153        H  0.36619755  0.03562731  0.36316612     0.06080
N154        N  0.39997502  0.05479219  0.48322546     0.00610
N155        N  0.42887344  0.12806513  0.11750058     0.00350
C156        C  0.44980591  0.16532214  0.15866224     0.41950
N157        N  0.34893150  0.10751122  0.47593254    -0.26260
C158        C  0.45342873  0.14202408  0.36845124    -0.07180
N159        N  0.34524970  0.07817352  0.36908722    -0.47370
N160        N  0.45103780  0.14353085  0.14379614    -0.47590
C161        C  0.45045042  0.16449047  0.35062777     0.41900
N162        N  0.45031076  0.10476911  0.48391450     0.00590
N163        N  0.39917254  0.15672649  0.47640318    -0.26280
N164        N  0.37916868  0.07439760  0.39539042    -0.26780
N165        N  0.39841741  0.15716899  0.02734196     0.00230
H166        H  0.41849229  0.18727772  0.41956056     0.06120
H167        H  0.41784735  0.17526871  0.14297868     0.06160
N168        N  0.44927069  0.10491480  0.03563621    -0.26830
N169        N  0.36558838  0.09069983  0.11409013    -0.26440
N170        N  0.41666618  0.13725765  0.39384088     0.00600
C171        C  0.38178397  0.01419993  0.00585284     0.41990
C172        C  0.32441803  0.09307678  0.45898932    -0.07690
N173        N  0.41439346  0.13923150  0.11434287    -0.26440
H174        H  0.32981521  0.08766167  0.14323860     0.06140
N175        N  0.38954959  0.03056976  0.46444411    -0.47660
H176        H  0.31794793  0.08993815  0.41897783     0.06130
C177        C  0.42283852  0.19719575  0.00564591     0.41830
C178        C  0.36304725  0.05205990  0.36868133    -0.07190
Co179      Co  0.38278691  0.12296137  0.43467091     0.73820
N180        N  0.32498641  0.09339076  0.04613671    -0.47380
C181        C  0.49055689  0.12231783  0.00867169     0.42100
N182        N  0.42709553  0.15952471  0.36758941    -0.47370
Co183      Co  0.38143408  0.12397470  0.07085521     0.73890
C184        C  0.42549118  0.16201994  0.13983313    -0.07700
C185        C  0.38821237  0.03043740  0.05256648    -0.07260
N186        N  0.43115594  0.12601291  0.39544474    -0.26790
N187        N  0.36098085  0.05391849  0.14384058    -0.47550
H188        H  0.47909537  0.11844941  0.09519359     0.06100
C189        C  0.41464572  0.18101455  0.45953870    -0.07670
Cl190      Cl  0.39869257  0.10652335  0.00539326    -0.50670
C191        C  0.30860460  0.08382417  0.00563337     0.41860
H192        H  0.46983764  0.13884772  0.36297816     0.06070
N193        N  0.41236897  0.18099442  0.04639289    -0.47380
C194        C  0.16778651  0.44863526  0.35637457     0.41710
N195        N  0.14079243  0.41310031  0.39514140     0.00600
C196        C  0.03593349  0.38482664  0.05682900    -0.07280
H197        H  0.12520183  0.47545212  0.09527027     0.06090
C198        C  0.16687664  0.42153826  0.13736860    -0.07630
Co199      Co  0.09300423  0.41143991  0.44010706     0.74180
N200        N  0.10962410  0.44487965  0.03699331    -0.26810
Co201      Co  0.09527745  0.40990991  0.07893344     0.74070
C202        C  0.17045857  0.44629793  0.15486878     0.41810
N203        N  0.16047184  0.39294281  0.02570355     0.00210
N204        N  0.13258013  0.42444444  0.11708192     0.00320
N205        N  0.03470533  0.38537873  0.46854800    -0.47650
H206        H  0.14057761  0.46601006  0.36902137     0.06080
N207        N  0.10871134  0.44543111  0.48536153     0.00610
N208        N  0.08028018  0.37253328  0.11735463     0.00350
C209        C  0.05795538  0.33455464  0.15454923     0.41950
N210        N  0.16011069  0.39332290  0.47465340    -0.26260
C211        C  0.05445289  0.36023927  0.37238750    -0.07180
N212        N  0.16379336  0.42516256  0.37130229    -0.47370
N213        N  0.05758115  0.35695130  0.14176252    -0.47590
C214        C  0.05595251  0.33705296  0.35521636     0.41720
N215        N  0.05910026  0.39614763  0.48606958     0.00590
N216        N  0.11020688  0.34412230  0.47461911    -0.26280
N217        N  0.12882119  0.42689886  0.39726076    -0.26780
N218        N  0.11074591  0.34339831  0.02563082     0.00230
H219        H  0.09264728  0.31392820  0.41651784     0.06120
H220        H  0.08957008  0.32400224  0.13904466     0.06160
N221        N  0.06025698  0.39585816  0.03769812    -0.26830
N222        N  0.14363072  0.40987901  0.11352930    -0.26440
N223        N  0.09128965  0.36387838  0.39465354     0.00600
C224        C  0.12779813  0.48559604  0.00818275     0.41990
C225        C  0.18468957  0.40716705  0.45752898    -0.07690
N226        N  0.09444074  0.36105997  0.11350472    -0.26440
H227        H  0.18032330  0.41411981  0.13992384     0.06140
N228        N  0.11958199  0.46956549  0.46660750    -0.47660
H229        H  0.19097889  0.41047417  0.41736486     0.06130
C230        C  0.08782622  0.30338928  0.00281094     0.41830
C231        C  0.14437869  0.44990673  0.37266023    -0.07190
Co232      Co  0.12596725  0.37826046  0.43392786     0.73820
N233        N  0.18426033  0.40612708  0.04484533    -0.47380
C234        C  0.01927278  0.37794931  0.01115186     0.42100
N235        N  0.07942647  0.34111222  0.36995139    -0.47370
Co236      Co  0.12760635  0.37648473  0.07006361     0.73890
C237        C  0.08249747  0.33774694  0.13696190    -0.07700
C238        C  0.12129522  0.46955561  0.05485923    -0.07260
N239        N  0.07737547  0.37570010  0.39730865    -0.26790
N240        N  0.14832295  0.44704880  0.14167304    -0.47550
H241        H  0.03064698  0.38155715  0.09759911     0.06100
C242        C  0.09594715  0.31978598  0.45686483    -0.07670
Cl243      Cl  0.11018722  0.39428462  0.00577124    -0.50670
C244        C  0.20058293  0.41578359  0.00427767     0.41860
H245        H  0.03835114  0.36403328  0.36881265     0.06070
N246        N  0.09768699  0.31935994  0.04404976    -0.47380
C247        C  0.22472926  0.41606531  0.00694124     0.41710
N248        N  0.24217606  0.39337746  0.48610291     0.00600
C249        C  0.31248679  0.35745277  0.14021476    -0.07280
H250        H  0.33467195  0.46655465  0.13981694     0.06090
C251        C  0.35876703  0.46866889  0.45662111    -0.07630
Co252      Co  0.26109026  0.37806655  0.07818385     0.74180
N253        N  0.30753163  0.42672802  0.11406149    -0.26810
Co254      Co  0.32770103  0.41039406  0.07213910     0.74070
C255        C  0.36824619  0.48524977  0.50298864     0.41810
N256        N  0.30211677  0.42323821  0.39482859     0.00210
N257        N  0.34700285  0.44471862  0.02647189     0.00320
N258        N  0.26870346  0.34042223  0.14278477    -0.47650
H259        H  0.22862012  0.41062806  0.09396552     0.06080
N260        N  0.28172689  0.41290075  0.11634114     0.00610
N261        N  0.34616272  0.39441637  0.02715353     0.00350
C262        C  0.36871529  0.37669548  0.00414490     0.41950
N263        N  0.27640436  0.40971265  0.39901675    -0.26260
C264        C  0.23202342  0.31923200  0.05479074    -0.07180
N265        N  0.23160772  0.40650585  0.46655293    -0.47370
N266        N  0.36023344  0.38435398  0.04573600    -0.47590
C267        C  0.22540378  0.30335778  0.00813749     0.41720
N268        N  0.28061262  0.36322123  0.11820912     0.00590
N269        N  0.27485994  0.36025269  0.39870861    -0.26280
N270        N  0.24266842  0.39366243  0.03710266    -0.26780
N271        N  0.30043083  0.37080004  0.39447209     0.00230
H272        H  0.24129210  0.32508847  0.36944638     0.06120
H273        H  0.36113248  0.37947399  0.41704741     0.06160
N274        N  0.30632651  0.37410490  0.11548440    -0.26830
N275        N  0.34572357  0.44389045  0.47481411    -0.26440
N276        N  0.24166818  0.34344683  0.48673009     0.00600
C277        C  0.28995789  0.44903389  0.15238099     0.41990
C278        C  0.26559835  0.42186066  0.37407077    -0.07690
N279        N  0.34482215  0.39363178  0.47548344    -0.26440
H280        H  0.36065766  0.47437978  0.41610553     0.06140
N281        N  0.27075428  0.42523185  0.13859266    -0.47660
H282        H  0.24487762  0.41520121  0.37119314     0.06130
C283        C  0.28270904  0.33406097  0.35138078     0.41830
C284        C  0.23193574  0.40752257  0.05387997    -0.07190
Co285      Co  0.25814978  0.37642588  0.44247353     0.73820
N286        N  0.30984882  0.44539507  0.36817270    -0.47380
C287        C  0.28704434  0.33487658  0.15776578     0.42100
N288        N  0.23202049  0.31972510  0.46759798    -0.47370
Co289      Co  0.32423950  0.40824708  0.43350850     0.73890
C290        C  0.35859430  0.38274455  0.45755643    -0.07700
C291        C  0.31482542  0.45020501  0.13704976    -0.07260
N292        N  0.24213261  0.34378311  0.03777355    -0.26790
N293        N  0.36018591  0.46908586  0.04467756    -0.47550
H294        H  0.33196280  0.36006318  0.14352010     0.06100
C295        C  0.26232578  0.33770730  0.37245996    -0.07670
Cl296      Cl  0.29318957  0.39342696  0.00650505    -0.50670
C297        C  0.28752594  0.44560379  0.35456825     0.41860
H298        H  0.22890352  0.31278725  0.09482886     0.06070
N299        N  0.30623585  0.35531593  0.36604241    -0.47380
C300        C  0.05690392  0.21422466  0.35565838     0.41710
N301        N  0.09233219  0.22308564  0.39496155     0.00600
C302        C  0.12184558  0.14580808  0.05370019    -0.07280
H303        H  0.03094440  0.14372205  0.09527545     0.06090
C304        C  0.08278485  0.23935831  0.13584677    -0.07630
Co305      Co  0.09465986  0.17702082  0.43905757     0.74180
N306        N  0.06091931  0.15878614  0.03593045    -0.26810
Co307      Co  0.09616580  0.18017169  0.07767893     0.74070
C308        C  0.05822832  0.21786992  0.15298436     0.41810
N309        N  0.11151455  0.26282624  0.02573675     0.00210
N310        N  0.08076044  0.20242595  0.11589799     0.00320
N311        N  0.12058997  0.14449974  0.46548573    -0.47650
H312        H  0.03995791  0.16957086  0.36775329     0.06080
N313        N  0.05994757  0.15744532  0.48428549     0.00610
N314        N  0.13351556  0.20367862  0.11720676     0.00350
C315        C  0.17066830  0.22082357  0.15894860     0.41950
N316        N  0.11113961  0.26174572  0.47479114    -0.26260
C317        C  0.14758988  0.19290439  0.36987534    -0.07180
N318        N  0.08020960  0.23382661  0.37077390    -0.47370
N319        N  0.14923117  0.19750749  0.14394362    -0.47590
C320        C  0.16990851  0.21860991  0.35248827     0.41720
N321        N  0.11041499  0.15845594  0.48412758     0.00590
N322        N  0.16107068  0.26252528  0.47522622    -0.26280
N323        N  0.07879992  0.19723944  0.39681511    -0.26780
N324        N  0.16128413  0.26300461  0.02627067     0.00230
H325        H  0.19223113  0.27570205  0.41863836     0.06120
H326        H  0.17970995  0.26248576  0.14282633     0.06160
N327        N  0.11097631  0.15962102  0.03582243    -0.26830
N328        N  0.09485191  0.22815757  0.11243969    -0.26440
N329        N  0.14189519  0.22448454  0.39421152     0.00600
C330        C  0.01956303  0.13595134  0.00877999     0.41990
C331        C  0.09692031  0.27177246  0.45686846    -0.07690
N332        N  0.14412298  0.22931132  0.11387244    -0.26440
H333        H  0.08985983  0.26018748  0.13838380     0.06140
N334        N  0.03544065  0.14403641  0.46650447    -0.47660
H335        H  0.09381324  0.27447241  0.41648649     0.06130
C336        C  0.20139524  0.27927970  0.00540969     0.41830
C337        C  0.05584656  0.18959144  0.37188457    -0.07190
Co338      Co  0.12692717  0.24366166  0.43414453     0.73820
N339        N  0.09826199  0.27357183  0.04408027    -0.47380
C340        C  0.12811658  0.13588610  0.00704726     0.42100
N341        N  0.16440647  0.23673289  0.36885816    -0.47370
Co342      Co  0.12822961  0.24645714  0.06993269     0.73890
C343        C  0.16684336  0.24148479  0.13966109    -0.07700
C344        C  0.03636898  0.14561911  0.05459872    -0.07260
N345        N  0.13108639  0.19873550  0.39608149    -0.26790
N346        N  0.05797761  0.19514044  0.14011827    -0.47550
H347        H  0.12499602  0.14313032  0.09421062     0.06100
C348        C  0.18565186  0.27258256  0.45856885    -0.07670
Cl349      Cl  0.11134197  0.21142580  0.00524645    -0.50670
C350        C  0.08834622  0.27954580  0.00273319     0.41860
H351        H  0.14491338  0.17345605  0.36496649     0.06070
N352        N  0.18493290  0.27269629  0.04572835    -0.47380
C353        C  0.28500548  0.08449721  0.00840073     0.41710
N354        N  0.26909562  0.10856036  0.48717285     0.00600
C355        C  0.19541344  0.14052176  0.13815862    -0.07280
H356        H  0.17908721  0.03354288  0.14381346     0.06090
C357        C  0.15307516  0.02996508  0.45842909    -0.07630
Co358      Co  0.24944988  0.12299310  0.07922727     0.74180
N359        N  0.20476663  0.07341490  0.11647333    -0.26810
Co360      Co  0.18336360  0.08816265  0.07331019     0.74070
C361        C  0.14312159  0.01400779  0.00515085     0.41810
N362        N  0.21062365  0.07621392  0.39448023     0.00210
N363        N  0.16551829  0.05410047  0.02798073     0.00320
N364        N  0.23947827  0.15980557  0.14078197    -0.47650
H365        H  0.28187703  0.09056550  0.09505041     0.06080
N366        N  0.23045819  0.08834894  0.11917473     0.00610
N367        N  0.16387249  0.10266235  0.02742224     0.00350
C368        C  0.14175352  0.12081066  0.00413859     0.41950
N369        N  0.23616813  0.09144622  0.39867758    -0.26260
C370        C  0.27667755  0.18166942  0.05470269    -0.07180
N371        N  0.27857901  0.09441197  0.46792897    -0.47370
N372        N  0.15018420  0.11317635  0.04578953    -0.47590
C373        C  0.28320206  0.19751574  0.00793962     0.41720
N374        N  0.22866986  0.13655500  0.11830420     0.00590
N375        N  0.23390520  0.13899181  0.39882001    -0.26280
N376        N  0.26868400  0.10839137  0.03821239    -0.26780
N377        N  0.20822684  0.12655115  0.39463495     0.00230
H378        H  0.26531355  0.17597721  0.37040518     0.06120
H379        H  0.14927935  0.11780105  0.41714526     0.06160
N380        N  0.20291400  0.12446981  0.11551433    -0.26830
N381        N  0.16679183  0.05460988  0.47626715    -0.26440
N382        N  0.26724556  0.15739017  0.48690139     0.00600
C383        C  0.22396118  0.05332605  0.15807588     0.41990
C384        C  0.24873722  0.08146394  0.37241833    -0.07690
N385        N  0.16508156  0.10313581  0.47569447    -0.26440
H386        H  0.15035640  0.02408929  0.41794375     0.06140
N387        N  0.24236132  0.07737864  0.14344976    -0.47660
H388        H  0.26977484  0.08998870  0.36939042     0.06130
C389        C  0.22259911  0.16321147  0.35343939     0.41830
C390        C  0.27872241  0.09392712  0.05508381    -0.07190
Co391      Co  0.25225979  0.12447759  0.44277979     0.73820
N392        N  0.20484176  0.05487254  0.36618811    -0.47380
C393        C  0.22017844  0.16427221  0.15387865     0.42100
N394        N  0.27660013  0.18104907  0.46754989    -0.47370
Co395      Co  0.18674598  0.08954266  0.43374302     0.73890
C396        C  0.15147259  0.11420164  0.45764244    -0.07700
C397        C  0.19856717  0.05048924  0.14077032    -0.07260
N398        N  0.26694978  0.15713364  0.03793314    -0.26790
N399        N  0.15152186  0.03003154  0.04673516    -0.47550
H400        H  0.17554401  0.13693629  0.14031569     0.06100
C401        C  0.24460774  0.16177230  0.37328648    -0.07670
Cl402      Cl  0.21731676  0.10588499  0.00720390    -0.50670
C403        C  0.22833644  0.05722217  0.35137914     0.41860
H404        H  0.28000306  0.18815869  0.09473075     0.06070
N405        N  0.20032075  0.14065108  0.36744301    -0.47380
O406        O  0.21434617  0.46928754  0.83459260    -0.80890
O407        O  0.26289217  0.46833423  0.66613998    -0.80910
O408        O  0.19596744  0.48375943  0.70758073    -0.80920
O409        O  0.30394388  0.48276380  0.80042220    -0.80860
O410        O  0.21687904  0.46762477  0.66765428    -0.80980
O411        O  0.26417706  0.46854351  0.83307570    -0.80900
O412        O  0.29957588  0.48483495  0.70748044    -0.80890
O413        O  0.18998010  0.48435262  0.80014730    -0.80920
C414        C  0.19192194  0.46868070  0.83026652     1.08800
C415        C  0.28433062  0.46885849  0.67510317     1.08690
C416        C  0.19560992  0.46740933  0.67654007     1.08830
C417        C  0.28550767  0.46702932  0.82923653     1.08700
O418        O  0.29313318  0.02650402  0.85047575    -0.80890
O419        O  0.24319962  0.02548505  0.65497021    -0.80960
O420        O  0.22516178  0.02970326  0.78042602    -0.80900
O421        O  0.31429410  0.02610327  0.72775064    -0.80880
O422        O  0.29273666  0.02631478  0.65562506    -0.80930
O423        O  0.24539220  0.02747528  0.85000357    -0.80900
O424        O  0.31517111  0.02886359  0.78032198    -0.80860
O425        O  0.22309502  0.02658542  0.72841486    -0.80930
Co426      Co  0.25474409  0.49889354  0.83168178     1.51530
Co427      Co  0.25442984  0.99797580  0.66752405     1.51690
Co428      Co  0.22198480  0.49560482  0.76483518     1.51570
Co429      Co  0.28409221  0.99508919  0.76448997     1.51470
O430        O  0.25887211  0.50686851  0.74688796    -1.42820
C431        C  0.31511252  0.03597474  0.82656637     1.08730
C432        C  0.23039778  0.03402419  0.68130957     1.08820
C433        C  0.23306427  0.03720152  0.82633785     1.08760
C434        C  0.31418338  0.03451983  0.68149041     1.08730
O435        O  0.47800622  0.26043941  0.84998958    -0.80890
O436        O  0.47888567  0.21193378  0.65469656    -0.80910
O437        O  0.47774767  0.28136251  0.72747682    -0.80920
O438        O  0.47638177  0.18975700  0.77939196    -0.80860
O439        O  0.47866209  0.26080955  0.65457623    -0.80980
O440        O  0.47821531  0.21179432  0.84944809    -0.80900
O441        O  0.47893376  0.19058849  0.72711301    -0.80890
O442        O  0.47510433  0.27962195  0.77939266    -0.80920
C443        C  0.46836206  0.27280748  0.82602176     1.08800
C444        C  0.47071040  0.19054238  0.68072725     1.08690
C445        C  0.46992780  0.27346860  0.68075898     1.08830
C446        C  0.46915236  0.18980157  0.82558346     1.08700
O447        O  0.03602773  0.23991799  0.83370550    -0.80890
O448        O  0.03658365  0.28815542  0.66679964    -0.80960
O449        O  0.02036308  0.31481539  0.79893348    -0.80900
O450        O  0.02103764  0.20583265  0.70628914    -0.80880
O451        O  0.03672588  0.24275047  0.66597430    -0.80930
O452        O  0.03572759  0.29055839  0.83305528    -0.80900
O453        O  0.02178703  0.20069852  0.79827554    -0.80860
O454        O  0.02027117  0.30892743  0.70647605    -0.80930
Co455      Co  0.00603251  0.25016896  0.83107163     1.51530
Co456      Co  0.00668017  0.25040744  0.66685365     1.51690
Co457      Co  0.00908104  0.28286166  0.76343053     1.51570
Co458      Co  0.00996216  0.22088079  0.76296582     1.51470
O459        O  0.99792543  0.24595891  0.74620759    -1.42820
C460        C  0.03696494  0.21823501  0.82910990     1.08730
C461        C  0.03669514  0.30938644  0.67562859     1.08820
C462        C  0.03608802  0.31291351  0.82897196     1.08760
C463        C  0.03705370  0.22170671  0.67471723     1.08730
O464        O  0.24605783  0.20943919  0.83188092    -0.80890
O465        O  0.29324508  0.25620557  0.66741788    -0.80910
O466        O  0.21038941  0.19067140  0.70732887    -0.80920
O467        O  0.32055428  0.29947928  0.79947170    -0.80860
O468        O  0.24718305  0.21075757  0.66641958    -0.80980
O469        O  0.29589492  0.25996664  0.83370005    -0.80900
O470        O  0.31441439  0.29328870  0.70737564    -0.80890
O471        O  0.20611283  0.18398051  0.79981587    -0.80920
C472        C  0.22461541  0.18662488  0.82824527     1.08800
C473        C  0.31459621  0.27727783  0.67625304     1.08690
C474        C  0.22570480  0.18983581  0.67547140     1.08830
C475        C  0.31841925  0.28173440  0.82940964     1.08700
O476        O  0.26521056  0.28720307  0.84977495    -0.80890
O477        O  0.21738718  0.23883842  0.65549235    -0.80960
O478        O  0.19512739  0.21896260  0.78026928    -0.80900
O479        O  0.28771153  0.30888541  0.72802561    -0.80880
O480        O  0.26711826  0.28769321  0.65484006    -0.80930
O481        O  0.21720970  0.23815759  0.85071224    -0.80900
O482        O  0.28557689  0.30978951  0.78029144    -0.80860
O483        O  0.19592339  0.21714897  0.72777667    -0.80930
Co484      Co  0.25559278  0.24921729  0.83124558     1.51530
Co485      Co  0.25572031  0.24889771  0.66738742     1.51690
Co486      Co  0.22609319  0.21632131  0.76428076     1.51570
Co487      Co  0.28841470  0.27881722  0.76442567     1.51470
O488        O  0.25138806  0.25336699  0.74670086    -1.42820
C489        C  0.27778536  0.30932669  0.82625210     1.08730
C490        C  0.19596518  0.22556131  0.68146052     1.08820
C491        C  0.19518932  0.22562157  0.82687911     1.08760
C492        C  0.28033454  0.30907225  0.68102323     1.08730
C493        C  0.45002969  0.27983594  0.85164500     0.41710
N494        N  0.41617509  0.27407458  0.89384070     0.00600
C495        C  0.39016049  0.35333537  0.55382291    -0.07280
H496        H  0.47925281  0.35512483  0.59742713     0.06090
C497        C  0.42449986  0.25706644  0.63955388    -0.07630
Co498      Co  0.41712621  0.32154712  0.93967582     0.74180
N499        N  0.44986661  0.33846568  0.53723666    -0.26810
Co500      Co  0.41475011  0.31827805  0.57843030     0.74070
C501        C  0.44914112  0.27787168  0.65826387     0.41810
N502        N  0.39634510  0.23526796  0.52687010     0.00210
N503        N  0.42856935  0.29477254  0.61790777     0.00320
N504        N  0.39179618  0.35482775  0.96568650    -0.47650
H505        H  0.47083725  0.32487174  0.86595871     0.06080
N506        N  0.45109355  0.33971448  0.98559360     0.00610
N507        N  0.37727252  0.29638039  0.61677876     0.00350
C508        C  0.33962980  0.28107351  0.65500928     0.41950
N509        N  0.39690416  0.23636673  0.97586773    -0.26260
C510        C  0.36621332  0.30987861  0.87158476    -0.07180
N511        N  0.42611763  0.26184166  0.86733942    -0.47370
N512        N  0.36194495  0.30377120  0.64122470    -0.47590
C513        C  0.34238327  0.28545427  0.85531669     0.41720
N514        N  0.40227084  0.34115650  0.98449749     0.00590
N515        N  0.34778925  0.23746393  0.97554964    -0.26280
N516        N  0.43155036  0.29974448  0.89661693    -0.26780
N517        N  0.34748637  0.23690206  0.52655569     0.00230
H518        H  0.31696562  0.22513604  0.91848636     0.06120
H519        H  0.32891896  0.23870198  0.64132614     0.06160
N520        N  0.40134097  0.33980014  0.53615182    -0.26830
N521        N  0.41362590  0.26912605  0.61447036    -0.26440
N522        N  0.36833151  0.27600489  0.89518775     0.00600
C523        C  0.49077409  0.36260446  0.01098142     0.41990
C524        C  0.41225774  0.22748015  0.95887651    -0.07690
N525        N  0.36568908  0.27066602  0.61392978    -0.26440
H526        H  0.41652523  0.23608904  0.64253018     0.06140
N527        N  0.47545186  0.35406732  0.96822326    -0.47660
H528        H  0.41616255  0.22516731  0.91892070     0.06130
C529        C  0.30746251  0.22144562  0.50528088     0.41830
C530        C  0.45386783  0.30548775  0.87039468    -0.07190
Co531      Co  0.38182909  0.25514500  0.93444200     0.73820
N532        N  0.41059261  0.22575686  0.54582980    -0.47380
C533        C  0.38385347  0.36313085  0.50713218     0.42100
N534        N  0.34550845  0.26557491  0.87090488    -0.47370
Co535      Co  0.38041945  0.25226661  0.57077332     0.73890
C536        C  0.34264769  0.25953522  0.63826205    -0.07700
C537        C  0.47410031  0.35240049  0.55655751    -0.07260
N538        N  0.38112390  0.30185732  0.89683853    -0.26790
N539        N  0.45070335  0.30108729  0.64385952    -0.47550
H540        H  0.38631044  0.35543210  0.59420425     0.06100
C541        C  0.32332660  0.22798277  0.95858661    -0.07670
Cl542      Cl  0.39878983  0.28720389  0.50583611    -0.50670
C543        C  0.42137337  0.22051081  0.50508978     0.41860
H544        H  0.37073445  0.33000767  0.86735027     0.06070
N545        N  0.32384300  0.22766435  0.54571501    -0.47380
C546        C  0.34035425  0.05483023  0.85179657     0.41710
N547        N  0.36782472  0.08882711  0.89433695     0.00600
C548        C  0.47374815  0.11558707  0.55442547    -0.07280
H549        H  0.38487710  0.02451192  0.59301818     0.06090
C550        C  0.34285666  0.07978540  0.63985126    -0.07630
Co551      Co  0.41568728  0.08953516  0.93830400     0.74180
N552        N  0.39934512  0.05525659  0.53496238    -0.26810
Co553      Co  0.41396506  0.09053064  0.57767844     0.74070
C554        C  0.33937275  0.05538203  0.65899055     0.41810
N555        N  0.34865043  0.10749384  0.52691494     0.00210
N556        N  0.37648653  0.07596907  0.61721809     0.00320
N557        N  0.47477426  0.11514069  0.96627897    -0.47650
H558        H  0.36619755  0.03562730  0.86316611     0.06080
N559        N  0.39997502  0.05479218  0.98322544     0.00610
N560        N  0.42887345  0.12806513  0.61750060     0.00350
C561        C  0.44980592  0.16532214  0.65866225     0.41950
N562        N  0.34893150  0.10751122  0.97593252    -0.26260
C563        C  0.45342874  0.14202408  0.86845123    -0.07180
N564        N  0.34524970  0.07817352  0.86908720    -0.47370
N565        N  0.45103781  0.14353086  0.64379615    -0.47590
C566        C  0.45045042  0.16449047  0.85062776     0.41900
N567        N  0.45031077  0.10476911  0.98391448     0.00590
N568        N  0.39917254  0.15672649  0.97640317    -0.26280
N569        N  0.37916868  0.07439760  0.89539040    -0.26780
N570        N  0.39841741  0.15716899  0.52734197     0.00230
H571        H  0.41849229  0.18727772  0.91956055     0.06120
H572        H  0.41784735  0.17526872  0.64297869     0.06160
N573        N  0.44927069  0.10491480  0.53563623    -0.26830
N574        N  0.36558838  0.09069984  0.61409015    -0.26440
N575        N  0.41666618  0.13725765  0.89384086     0.00600
C576        C  0.38178396  0.01419993  0.50585286     0.41990
C577        C  0.32441803  0.09307678  0.95898930    -0.07690
N578        N  0.41439346  0.13923150  0.61434288    -0.26440
H579        H  0.32981521  0.08766167  0.64323862     0.06140
N580        N  0.38954960  0.03056976  0.96444409    -0.47660
H581        H  0.31794793  0.08993815  0.91897781     0.06130
C582        C  0.42283852  0.19719576  0.50564593     0.41830
C583        C  0.36304725  0.05205990  0.86868132    -0.07190
Co584      Co  0.38278691  0.12296136  0.93467089     0.73820
N585        N  0.32498641  0.09339076  0.54613673    -0.47380
C586        C  0.49055689  0.12231783  0.50867171     0.42100
N587        N  0.42709553  0.15952471  0.86758940    -0.47370
Co588      Co  0.38143408  0.12397470  0.57085523     0.73890
C589        C  0.42549118  0.16201994  0.63983314    -0.07700
C590        C  0.38821237  0.03043740  0.55256650    -0.07260
N591        N  0.43115594  0.12601291  0.89544473    -0.26790
N592        N  0.36098085  0.05391849  0.64384059    -0.47550
H593        H  0.47909537  0.11844941  0.59519360     0.06100
C594        C  0.41464571  0.18101455  0.95953868    -0.07670
Cl595      Cl  0.39869257  0.10652335  0.50539328    -0.50670
C596        C  0.30860460  0.08382417  0.50563339     0.41860
H597        H  0.46983764  0.13884773  0.86297816     0.06070
N598        N  0.41236898  0.18099442  0.54639291    -0.47380
C599        C  0.16778651  0.44863526  0.85637459     0.41710
N600        N  0.14079243  0.41310031  0.89514143     0.00600
C601        C  0.03593349  0.38482664  0.55682899    -0.07280
H602        H  0.12520182  0.47545211  0.59527025     0.06090
C603        C  0.16687664  0.42153827  0.63736858    -0.07630
Co604      Co  0.09300423  0.41143992  0.94010709     0.74180
N605        N  0.10962409  0.44487965  0.53699329    -0.26810
Co606      Co  0.09527745  0.40990992  0.57893342     0.74070
C607        C  0.17045857  0.44629794  0.65486876     0.41810
N608        N  0.16047184  0.39294281  0.52570352     0.00210
N609        N  0.13258013  0.42444444  0.61708190     0.00320
N610        N  0.03470534  0.38537873  0.96854802    -0.47650
H611        H  0.14057761  0.46601006  0.86902139     0.06080
N612        N  0.10871134  0.44543111  0.98536156     0.00610
N613        N  0.08028018  0.37253328  0.61735461     0.00350
C614        C  0.05795539  0.33455465  0.65454922     0.41950
N615        N  0.16011069  0.39332289  0.97465342    -0.26260
C616        C  0.05445289  0.36023928  0.87238752    -0.07180
N617        N  0.16379336  0.42516256  0.87130232    -0.47370
N618        N  0.05758116  0.35695131  0.64176251    -0.47590
C619        C  0.05595251  0.33705296  0.85521637     0.41720
N620        N  0.05910026  0.39614763  0.98606960     0.00590
N621        N  0.11020687  0.34412230  0.97461912    -0.26280
N622        N  0.12882119  0.42689887  0.89726079    -0.26780
N623        N  0.11074591  0.34339831  0.52563080     0.00230
H624        H  0.09264728  0.31392820  0.91651786     0.06120
H625        H  0.08957009  0.32400225  0.63904465     0.06160
N626        N  0.06025698  0.39585816  0.53769810    -0.26830
N627        N  0.14363072  0.40987902  0.61352927    -0.26440
N628        N  0.09128965  0.36387838  0.89465356     0.00600
C629        C  0.12779811  0.48559604  0.50818273     0.41990
C630        C  0.18468956  0.40716704  0.95752901    -0.07690
N631        N  0.09444074  0.36105997  0.61350470    -0.26440
H632        H  0.18032330  0.41411981  0.63992381     0.06140
N633        N  0.11958200  0.46956549  0.96660753    -0.47660
H634        H  0.19097889  0.41047417  0.91736488     0.06130
C635        C  0.08782622  0.30338928  0.50281093     0.41830
C636        C  0.14437869  0.44990673  0.87266025    -0.07190
Co637      Co  0.12596724  0.37826045  0.93392788     0.73820
N638        N  0.18426033  0.40612709  0.54484531    -0.47380
C639        C  0.01927278  0.37794931  0.51115185     0.42100
N640        N  0.07942647  0.34111222  0.86995141    -0.47370
Co641      Co  0.12760636  0.37648473  0.57006359     0.73890
C642        C  0.08249747  0.33774694  0.63696189    -0.07700
C643        C  0.12129521  0.46955561  0.55485921    -0.07260
N644        N  0.07737547  0.37570010  0.89730867    -0.26790
N645        N  0.14832295  0.44704880  0.64167302    -0.47550
H646        H  0.03064698  0.38155715  0.59759909     0.06100
C647        C  0.09594715  0.31978598  0.95686484    -0.07670
Cl648      Cl  0.11018722  0.39428462  0.50577121    -0.50670
C649        C  0.20058293  0.41578359  0.50427765     0.41860
H650        H  0.03835115  0.36403329  0.86881267     0.06070
N651        N  0.09768700  0.31935995  0.54404974    -0.47380
C652        C  0.22472926  0.41606531  0.50694122     0.41710
N653        N  0.24217606  0.39337746  0.98610292     0.00600
C654        C  0.31248679  0.35745277  0.64021476    -0.07280
H655        H  0.33467195  0.46655464  0.63981694     0.06090
C656        C  0.35876703  0.46866889  0.95662110    -0.07630
Co657      Co  0.26109026  0.37806655  0.57818384     0.74180
N658        N  0.30753163  0.42672802  0.61406149    -0.26810
Co659      Co  0.32770103  0.41039405  0.57213910     0.74070
C660        C  0.36824619  0.48524977  0.00298862     0.41810
N661        N  0.30211677  0.42323820  0.89482859     0.00210
N662        N  0.34700285  0.44471862  0.52647189     0.00320
N663        N  0.26870345  0.34042223  0.64278476    -0.47650
H664        H  0.22862012  0.41062807  0.59396551     0.06080
N665        N  0.28172688  0.41290075  0.61634113     0.00610
N666        N  0.34616272  0.39441637  0.52715353     0.00350
C667        C  0.36871529  0.37669548  0.50414491     0.41950
N668        N  0.27640436  0.40971264  0.89901676    -0.26260
C669        C  0.23202342  0.31923200  0.55479072    -0.07180
N670        N  0.23160772  0.40650585  0.96655295    -0.47370
N671        N  0.36023344  0.38435398  0.54573601    -0.47590
C672        C  0.22540378  0.30335778  0.50813748     0.41720
N673        N  0.28061261  0.36322123  0.61820912     0.00590
N674        N  0.27485994  0.36025268  0.89870861    -0.26280
N675        N  0.24266842  0.39366243  0.53710265    -0.26780
N676        N  0.30043083  0.37080004  0.89447209     0.00230
H677        H  0.24129210  0.32508846  0.86944639     0.06120
H678        H  0.36113248  0.37947398  0.91704741     0.06160
N679        N  0.30632651  0.37410490  0.61548440    -0.26830
N680        N  0.34572357  0.44389045  0.97481411    -0.26440
N681        N  0.24166818  0.34344683  0.98673010     0.00600
C682        C  0.28995789  0.44903389  0.65238099     0.41990
C683        C  0.26559835  0.42186066  0.87407078    -0.07690
N684        N  0.34482215  0.39363178  0.97548344    -0.26440
H685        H  0.36065766  0.47437978  0.91610552     0.06140
N686        N  0.27075427  0.42523185  0.63859265    -0.47660
H687        H  0.24487761  0.41520121  0.87119315     0.06130
C688        C  0.28270903  0.33406097  0.85138078     0.41830
C689        C  0.23193574  0.40752257  0.55387996    -0.07190
Co690      Co  0.25814977  0.37642587  0.94247354     0.73820
N691        N  0.30984882  0.44539506  0.86817270    -0.47380
C692        C  0.28704433  0.33487658  0.65776577     0.42100
N693        N  0.23202049  0.31972510  0.96759799    -0.47370
Co694      Co  0.32423949  0.40824708  0.93350850     0.73890
C695        C  0.35859430  0.38274455  0.95755642    -0.07700
C696        C  0.31482542  0.45020501  0.63704976    -0.07260
N697        N  0.24213261  0.34378311  0.53777354    -0.26790
N698        N  0.36018591  0.46908586  0.54467757    -0.47550
H699        H  0.33196280  0.36006318  0.64352010     0.06100
C700        C  0.26232577  0.33770730  0.87245997    -0.07670
Cl701      Cl  0.29318956  0.39342696  0.50650505    -0.50670
C702        C  0.28752593  0.44560379  0.85456825     0.41860
H703        H  0.22890352  0.31278725  0.59482884     0.06070
N704        N  0.30623584  0.35531593  0.86604241    -0.47380
C705        C  0.05690392  0.21422467  0.85565839     0.41710
N706        N  0.09233219  0.22308564  0.89496155     0.00600
C707        C  0.12184558  0.14580808  0.55370019    -0.07280
H708        H  0.03094441  0.14372205  0.59527546     0.06090
C709        C  0.08278486  0.23935831  0.63584677    -0.07630
Co710      Co  0.09465987  0.17702082  0.93905757     0.74180
N711        N  0.06091931  0.15878614  0.53593045    -0.26810
Co712      Co  0.09616580  0.18017169  0.57767893     0.74070
C713        C  0.05822833  0.21786992  0.65298437     0.41810
N714        N  0.11151455  0.26282624  0.52573675     0.00210
N715        N  0.08076044  0.20242596  0.61589799     0.00320
N716        N  0.12058997  0.14449974  0.96548573    -0.47650
H717        H  0.03995791  0.16957086  0.86775329     0.06080
N718        N  0.05994757  0.15744531  0.98428549     0.00610
N719        N  0.13351557  0.20367862  0.61720675     0.00350
C720        C  0.17066830  0.22082357  0.65894860     0.41950
N721        N  0.11113961  0.26174572  0.97479115    -0.26260
C722        C  0.14758988  0.19290439  0.86987534    -0.07180
N723        N  0.08020960  0.23382661  0.87077391    -0.47370
N724        N  0.14923118  0.19750749  0.64394362    -0.47590
C725        C  0.16990851  0.21860991  0.85248827     0.41720
N726        N  0.11041499  0.15845593  0.98412758     0.00590
N727        N  0.16107068  0.26252528  0.97522623    -0.26280
N728        N  0.07879992  0.19723944  0.89681511    -0.26780
N729        N  0.16128413  0.26300461  0.52627065     0.00230
H730        H  0.19223113  0.27570205  0.91863838     0.06120
H731        H  0.17970995  0.26248577  0.64282631     0.06160
N732        N  0.11097631  0.15962102  0.53582243    -0.26830
N733        N  0.09485191  0.22815757  0.61243969    -0.26440
N734        N  0.14189519  0.22448454  0.89421153     0.00600
C735        C  0.01956303  0.13595134  0.50878000     0.41990
C736        C  0.09692031  0.27177247  0.95686847    -0.07690
N737        N  0.14412299  0.22931132  0.61387243    -0.26440
H738        H  0.08985984  0.26018749  0.63838380     0.06140
N739        N  0.03544066  0.14403641  0.96650446    -0.47660
H740        H  0.09381325  0.27447241  0.91648650     0.06130
C741        C  0.20139524  0.27927970  0.50540968     0.41830
C742        C  0.05584657  0.18959145  0.87188458    -0.07190
Co743      Co  0.12692717  0.24366166  0.93414453     0.73820
N744        N  0.09826199  0.27357184  0.54408026    -0.47380
C745        C  0.12811658  0.13588610  0.50704726     0.42100
N746        N  0.16440647  0.23673290  0.86885816    -0.47370
Co747      Co  0.12822962  0.24645714  0.56993268     0.73890
C748        C  0.16684336  0.24148479  0.63966108    -0.07700
C749        C  0.03636898  0.14561912  0.55459873    -0.07260
N750        N  0.13108640  0.19873550  0.89608149    -0.26790
N751        N  0.05797761  0.19514045  0.64011828    -0.47550
H752        H  0.12499602  0.14313032  0.59421062     0.06100
C753        C  0.18565187  0.27258256  0.95856887    -0.07670
Cl754      Cl  0.11134197  0.21142580  0.50524645    -0.50670
C755        C  0.08834622  0.27954580  0.50273318     0.41860
H756        H  0.14491338  0.17345605  0.86496648     0.06070
N757        N  0.18493290  0.27269629  0.54572833    -0.47380
C758        C  0.28500548  0.08449720  0.50840075     0.41710
N759        N  0.26909563  0.10856036  0.98717283     0.00600
C760        C  0.19541343  0.14052176  0.63815862    -0.07280
H761        H  0.17908720  0.03354287  0.64381346     0.06090
C762        C  0.15307517  0.02996508  0.95842910    -0.07630
Co763      Co  0.24944987  0.12299310  0.57922728     0.74180
N764        N  0.20476662  0.07341490  0.61647333    -0.26810
Co765      Co  0.18336359  0.08816264  0.57331019     0.74070
C766        C  0.14312158  0.01400779  0.50515084     0.41810
N767        N  0.21062365  0.07621392  0.89448023     0.00210
N768        N  0.16551828  0.05410046  0.52798073     0.00320
N769        N  0.23947826  0.15980556  0.64078198    -0.47650
H770        H  0.28187703  0.09056550  0.59505043     0.06080
N771        N  0.23045818  0.08834894  0.61917473     0.00610
N772        N  0.16387249  0.10266235  0.52742224     0.00350
C773        C  0.14175351  0.12081066  0.50413859     0.41950
N774        N  0.23616813  0.09144622  0.89867757    -0.26260
C775        C  0.27667754  0.18166942  0.55470271    -0.07180
N776        N  0.27857901  0.09441197  0.96792896    -0.47370
N777        N  0.15018420  0.11317634  0.54578953    -0.47590
C778        C  0.28320206  0.19751574  0.50793964     0.41720
N779        N  0.22866985  0.13655499  0.61830420     0.00590
N780        N  0.23390520  0.13899181  0.89881999    -0.26280
N781        N  0.26868400  0.10839136  0.53821241    -0.26780
N782        N  0.20822685  0.12655115  0.89463494     0.00230
H783        H  0.26531355  0.17597721  0.87040516     0.06120
H784        H  0.14927936  0.11780105  0.91714527     0.06160
N785        N  0.20291400  0.12446980  0.61551433    -0.26830
N786        N  0.16679184  0.05460988  0.97626716    -0.26440
N787        N  0.26724557  0.15739017  0.98690137     0.00600
C788        C  0.22396117  0.05332604  0.65807588     0.41990
C789        C  0.24873722  0.08146394  0.87241832    -0.07690
N790        N  0.16508156  0.10313581  0.97569447    -0.26440
H791        H  0.15035641  0.02408929  0.91794376     0.06140
N792        N  0.24236130  0.07737864  0.64344977    -0.47660
H793        H  0.26977484  0.08998870  0.86939041     0.06130
C794        C  0.22259911  0.16321146  0.85343938     0.41830
C795        C  0.27872240  0.09392712  0.55508383    -0.07190
Co796      Co  0.25225980  0.12447760  0.94277978     0.73820
N797        N  0.20484176  0.05487254  0.86618811    -0.47380
C798        C  0.22017844  0.16427220  0.65387865     0.42100
N799        N  0.27660013  0.18104908  0.96754987    -0.47370
Co800      Co  0.18674598  0.08954266  0.93374302     0.73890
C801        C  0.15147259  0.11420164  0.95764244    -0.07700
C802        C  0.19856716  0.05048924  0.64077032    -0.07260
N803        N  0.26694978  0.15713364  0.53793316    -0.26790
N804        N  0.15152185  0.03003154  0.54673515    -0.47550
H805        H  0.17554400  0.13693629  0.64031569     0.06100
C806        C  0.24460774  0.16177230  0.87328646    -0.07670
Cl807      Cl  0.21731675  0.10588498  0.50720391    -0.50670
C808        C  0.22833644  0.05722217  0.85137913     0.41860
H809        H  0.28000306  0.18815868  0.59473077     0.06070
N810        N  0.20032075  0.14065108  0.86744301    -0.47380
O811        O  0.21434617  0.96928753  0.33459258    -0.80890
O812        O  0.26289218  0.96833423  0.16613998    -0.80910
O813        O  0.19596745  0.98375944  0.20758073    -0.80920
O814        O  0.30394389  0.98276380  0.30042220    -0.80860
O815        O  0.21687904  0.96762477  0.16765429    -0.80980
O816        O  0.26417707  0.96854351  0.33307569    -0.80900
O817        O  0.29957588  0.98483495  0.20748044    -0.80890
O818        O  0.18998010  0.98435263  0.30014730    -0.80920
C819        C  0.19192194  0.96868070  0.33026650     1.08800
C820        C  0.28433062  0.96885849  0.17510317     1.08690
C821        C  0.19560993  0.96740933  0.17654008     1.08830
C822        C  0.28550767  0.96702932  0.32923653     1.08700
O823        O  0.29313319  0.52650403  0.35047575    -0.80890
O824        O  0.24319961  0.52548505  0.15497021    -0.80960
O825        O  0.22516179  0.52970326  0.28042602    -0.80900
O826        O  0.31429410  0.52610328  0.22775064    -0.80880
O827        O  0.29273666  0.52631478  0.15562506    -0.80930
O828        O  0.24539220  0.52747528  0.35000357    -0.80900
O829        O  0.31517111  0.52886360  0.28032198    -0.80860
O830        O  0.22309502  0.52658543  0.22841487    -0.80930
Co831      Co  0.25474409  0.99889354  0.33168178     1.51530
Co832      Co  0.25442984  0.49797580  0.16752406     1.51690
Co833      Co  0.22198480  0.99560483  0.26483517     1.51570
Co834      Co  0.28409221  0.49508919  0.26448997     1.51470
O835        O  0.25887212  0.00686851  0.24688795    -1.42820
C836        C  0.31511252  0.53597475  0.32656637     1.08730
C837        C  0.23039779  0.53402419  0.18130957     1.08820
C838        C  0.23306427  0.53720152  0.32633785     1.08760
C839        C  0.31418338  0.53451983  0.18149041     1.08730
O840        O  0.47800623  0.76043941  0.34998958    -0.80890
O841        O  0.47888566  0.71193377  0.15469656    -0.80910
O842        O  0.47774767  0.78136251  0.22747682    -0.80920
O843        O  0.47638177  0.68975699  0.27939196    -0.80860
O844        O  0.47866208  0.76080955  0.15457622    -0.80980
O845        O  0.47821531  0.71179432  0.34944809    -0.80900
O846        O  0.47893375  0.69058849  0.22711301    -0.80890
O847        O  0.47510433  0.77962195  0.27939266    -0.80920
C848        C  0.46836206  0.77280748  0.32602177     1.08800
C849        C  0.47071040  0.69054237  0.18072724     1.08690
C850        C  0.46992779  0.77346860  0.18075898     1.08830
C851        C  0.46915236  0.68980156  0.32558346     1.08700
O852        O  0.03602773  0.73991798  0.33370549    -0.80890
O853        O  0.03658365  0.78815542  0.16679964    -0.80960
O854        O  0.02036308  0.81481539  0.29893348    -0.80900
O855        O  0.02103763  0.70583265  0.20628914    -0.80880
O856        O  0.03672588  0.74275046  0.16597429    -0.80930
O857        O  0.03572759  0.79055839  0.33305527    -0.80900
O858        O  0.02178703  0.70069852  0.29827554    -0.80860
O859        O  0.02027116  0.80892743  0.20647605    -0.80930
Co860      Co  0.00603251  0.75016895  0.33107163     1.51530
Co861      Co  0.00668017  0.75040744  0.16685364     1.51690
Co862      Co  0.00908104  0.78286165  0.26343053     1.51570
Co863      Co  0.00996216  0.72088079  0.26296582     1.51470
O864        O  0.99792543  0.74595890  0.24620758    -1.42820
C865        C  0.03696494  0.71823501  0.32910989     1.08730
C866        C  0.03669514  0.80938644  0.17562859     1.08820
C867        C  0.03608801  0.81291351  0.32897196     1.08760
C868        C  0.03705370  0.72170670  0.17471722     1.08730
O869        O  0.24605783  0.70943919  0.33188094    -0.80890
O870        O  0.29324509  0.75620557  0.16741787    -0.80910
O871        O  0.21038942  0.69067140  0.20732888    -0.80920
O872        O  0.32055429  0.79947927  0.29947170    -0.80860
O873        O  0.24718305  0.71075757  0.16641958    -0.80980
O874        O  0.29589492  0.75996664  0.33370007    -0.80900
O875        O  0.31441440  0.79328870  0.20737565    -0.80890
O876        O  0.20611284  0.68398051  0.29981588    -0.80920
C877        C  0.22461541  0.68662488  0.32824528     1.08800
C878        C  0.31459621  0.77727783  0.17625303     1.08690
C879        C  0.22570480  0.68983581  0.17547140     1.08830
C880        C  0.31841926  0.78173440  0.32940965     1.08700
O881        O  0.26521056  0.78720307  0.34977495    -0.80890
O882        O  0.21738718  0.73883842  0.15549235    -0.80960
O883        O  0.19512740  0.71896260  0.28026928    -0.80900
O884        O  0.28771154  0.80888541  0.22802561    -0.80880
O885        O  0.26711826  0.78769321  0.15484007    -0.80930
O886        O  0.21720970  0.73815759  0.35071225    -0.80900
O887        O  0.28557690  0.80978951  0.28029144    -0.80860
O888        O  0.19592339  0.71714897  0.22777668    -0.80930
Co889      Co  0.25559278  0.74921730  0.33124559     1.51530
Co890      Co  0.25572031  0.74889771  0.16738743     1.51690
Co891      Co  0.22609319  0.71632131  0.26428076     1.51570
Co892      Co  0.28841471  0.77881722  0.26442567     1.51470
O893        O  0.25138806  0.75336699  0.24670087    -1.42820
C894        C  0.27778537  0.80932669  0.32625210     1.08730
C895        C  0.19596518  0.72556131  0.18146053     1.08820
C896        C  0.19518932  0.72562157  0.32687911     1.08760
C897        C  0.28033455  0.80907225  0.18102324     1.08730
C898        C  0.45002969  0.77983594  0.35164500     0.41710
N899        N  0.41617509  0.77407458  0.39384071     0.00600
C900        C  0.39016049  0.85333537  0.05382291    -0.07280
H901        H  0.47925281  0.85512483  0.09742714     0.06090
C902        C  0.42449985  0.75706644  0.13955387    -0.07630
Co903      Co  0.41712621  0.82154711  0.43967583     0.74180
N904        N  0.44986661  0.83846568  0.03723665    -0.26810
Co905      Co  0.41475011  0.81827805  0.07843029     0.74070
C906        C  0.44914111  0.77787168  0.15826387     0.41810
N907        N  0.39634510  0.73526796  0.02687009     0.00210
N908        N  0.42856935  0.79477254  0.11790777     0.00320
N909        N  0.39179618  0.85482775  0.46568651    -0.47650
H910        H  0.47083725  0.82487174  0.36595872     0.06080
N911        N  0.45109355  0.83971448  0.48559361     0.00610
N912        N  0.37727251  0.79638039  0.11677875     0.00350
C913        C  0.33962980  0.78107351  0.15500926     0.41950
N914        N  0.39690417  0.73636674  0.47586775    -0.26260
C915        C  0.36621332  0.80987861  0.37158477    -0.07180
N916        N  0.42611763  0.76184166  0.36733942    -0.47370
N917        N  0.36194495  0.80377121  0.14122469    -0.47590
C918        C  0.34238327  0.78545426  0.35531671     0.41720
N919        N  0.40227084  0.84115650  0.48449750     0.00590
N920        N  0.34778926  0.73746392  0.47554966    -0.26280
N921        N  0.43155036  0.79974448  0.39661694    -0.26780
N922        N  0.34748637  0.73690206  0.02655567     0.00230
H923        H  0.31696563  0.72513603  0.41848638     0.06120
H924        H  0.32891895  0.73870198  0.14132612     0.06160
N925        N  0.40134097  0.83980014  0.03615181    -0.26830
N926        N  0.41362590  0.76912604  0.11447036    -0.26440
N927        N  0.36833151  0.77600489  0.39518777     0.00600
C928        C  0.49077409  0.86260446  0.51098141     0.41990
C929        C  0.41225775  0.72748016  0.45887652    -0.07690
N930        N  0.36568908  0.77066602  0.11392977    -0.26440
H931        H  0.41652523  0.73608903  0.14253017     0.06140
N932        N  0.47545186  0.85406732  0.46822326    -0.47660
H933        H  0.41616256  0.72516732  0.41892072     0.06130
C934        C  0.30746251  0.72144562  0.00528086     0.41830
C935        C  0.45386783  0.80548775  0.37039469    -0.07190
Co936      Co  0.38182909  0.75514500  0.43444202     0.73820
N937        N  0.41059261  0.72575686  0.04582979    -0.47380
C938        C  0.38385347  0.86313085  0.00713217     0.42100
N939        N  0.34550845  0.76557491  0.37090490    -0.47370
Co940      Co  0.38041945  0.75226661  0.07077330     0.73890
C941        C  0.34264769  0.75953522  0.13826203    -0.07700
C942        C  0.47410031  0.85240049  0.05655751    -0.07260
N943        N  0.38112390  0.80185731  0.39683854    -0.26790
N944        N  0.45070335  0.80108729  0.14385951    -0.47550
H945        H  0.38631044  0.85543210  0.09420424     0.06100
C946        C  0.32332661  0.72798276  0.45858663    -0.07670
Cl947      Cl  0.39878983  0.78720389  0.00583610    -0.50670
C948        C  0.42137337  0.72051081  0.00508977     0.41860
H949        H  0.37073445  0.83000767  0.36735028     0.06070
N950        N  0.32384300  0.72766436  0.04571499    -0.47380
C951        C  0.34035425  0.55483024  0.35179658     0.41710
N952        N  0.36782472  0.58882711  0.39433696     0.00600
C953        C  0.47374815  0.61558707  0.05442546    -0.07280
H954        H  0.38487710  0.52451192  0.09301817     0.06090
C955        C  0.34285666  0.57978540  0.13985124    -0.07630
Co956      Co  0.41568727  0.58953517  0.43830402     0.74180
N957        N  0.39934512  0.55525660  0.03496236    -0.26810
Co958      Co  0.41396506  0.59053064  0.07767842     0.74070
C959        C  0.33937275  0.55538203  0.15899053     0.41810
N960        N  0.34865044  0.60749384  0.02691492     0.00210
N961        N  0.37648653  0.57596907  0.11721807     0.00320
N962        N  0.47477426  0.61514070  0.46627898    -0.47650
H963        H  0.36619755  0.53562731  0.36316612     0.06080
N964        N  0.39997502  0.55479219  0.48322545     0.00610
N965        N  0.42887344  0.62806513  0.11750058     0.00350
C966        C  0.44980591  0.66532214  0.15866225     0.41950
N967        N  0.34893151  0.60751123  0.47593254    -0.26260
C968        C  0.45342874  0.64202408  0.36845124    -0.07180
N969        N  0.34524970  0.57817352  0.36908721    -0.47370
N970        N  0.45103780  0.64353085  0.14379614    -0.47590
C971        C  0.45045042  0.66449048  0.35062777     0.41900
N972        N  0.45031077  0.60476911  0.48391450     0.00590
N973        N  0.39917255  0.65672650  0.47640318    -0.26280
N974        N  0.37916868  0.57439760  0.39539042    -0.26780
N975        N  0.39841742  0.65716900  0.02734196     0.00230
H976        H  0.41849230  0.68727773  0.41956057     0.06120
H977        H  0.41784735  0.67526872  0.14297868     0.06160
N978        N  0.44927069  0.60491480  0.03563622    -0.26830
N979        N  0.36558838  0.59069984  0.11409013    -0.26440
N980        N  0.41666618  0.63725766  0.39384087     0.00600
C981        C  0.38178396  0.51419993  0.00585285     0.41990
C982        C  0.32441803  0.59307679  0.45898932    -0.07690
N983        N  0.41439346  0.63923150  0.11434287    -0.26440
H984        H  0.32981520  0.58766167  0.14323860     0.06140
N985        N  0.38954959  0.53056976  0.46444411    -0.47660
H986        H  0.31794793  0.58993816  0.41897783     0.06130
C987        C  0.42283853  0.69719576  0.00564592     0.41830
C988        C  0.36304725  0.55205990  0.36868133    -0.07190
Co989      Co  0.38278691  0.62296137  0.43467091     0.73820
N990        N  0.32498641  0.59339077  0.04613671    -0.47380
C991        C  0.49055689  0.62231784  0.00867170     0.42100
N992        N  0.42709554  0.65952471  0.36758941    -0.47370
Co993      Co  0.38143408  0.62397470  0.07085521     0.73890
C994        C  0.42549118  0.66201994  0.13983313    -0.07700
C995        C  0.38821237  0.53043740  0.05256648    -0.07260
N996        N  0.43115594  0.62601291  0.39544474    -0.26790
N997        N  0.36098085  0.55391849  0.14384058    -0.47550
H998        H  0.47909537  0.61844941  0.09519359     0.06100
C999        C  0.41464573  0.68101455  0.45953870    -0.07670
Cl1000     Cl  0.39869257  0.60652335  0.00539326    -0.50670
C1001       C  0.30860461  0.58382418  0.00563336     0.41860
H1002       H  0.46983764  0.63884773  0.36297817     0.06070
N1003       N  0.41236898  0.68099442  0.04639290    -0.47380
C1004       C  0.16778651  0.94863526  0.35637457     0.41710
N1005       N  0.14079243  0.91310031  0.39514140     0.00600
C1006       C  0.03593349  0.88482664  0.05682900    -0.07280
H1007       H  0.12520183  0.97545212  0.09527027     0.06090
C1008       C  0.16687664  0.92153827  0.13736860    -0.07630
Co1009     Co  0.09300423  0.91143992  0.44010706     0.74180
N1010       N  0.10962410  0.94487965  0.03699331    -0.26810
Co1011     Co  0.09527745  0.90990992  0.07893344     0.74070
C1012       C  0.17045857  0.94629794  0.15486877     0.41810
N1013       N  0.16047184  0.89294281  0.02570354     0.00210
N1014       N  0.13258013  0.92444444  0.11708191     0.00320
N1015       N  0.03470534  0.88537873  0.46854800    -0.47650
H1016       H  0.14057761  0.96601006  0.36902136     0.06080
N1017       N  0.10871134  0.94543111  0.48536153     0.00610
N1018       N  0.08028018  0.87253329  0.11735462     0.00350
C1019       C  0.05795539  0.83455464  0.15454923     0.41950
N1020       N  0.16011070  0.89332290  0.47465340    -0.26260
C1021       C  0.05445289  0.86023928  0.37238750    -0.07180
N1022       N  0.16379336  0.92516256  0.37130229    -0.47370
N1023       N  0.05758116  0.85695131  0.14176252    -0.47590
C1024       C  0.05595251  0.83705296  0.35521636     0.41720
N1025       N  0.05910026  0.89614763  0.48606958     0.00590
N1026       N  0.11020688  0.84412230  0.47461911    -0.26280
N1027       N  0.12882119  0.92689887  0.39726076    -0.26780
N1028       N  0.11074591  0.84339831  0.02563082     0.00230
H1029       H  0.09264728  0.81392820  0.41651785     0.06120
H1030       H  0.08957009  0.82400225  0.13904466     0.06160
N1031       N  0.06025698  0.89585816  0.03769811    -0.26830
N1032       N  0.14363072  0.90987902  0.11352929    -0.26440
N1033       N  0.09128965  0.86387838  0.39465354     0.00600
C1034       C  0.12779813  0.98559604  0.00818274     0.41990
C1035       C  0.18468957  0.90716705  0.45752898    -0.07690
N1036       N  0.09444074  0.86105997  0.11350472    -0.26440
H1037       H  0.18032330  0.91411981  0.13992383     0.06140
N1038       N  0.11958199  0.96956549  0.46660750    -0.47660
H1039       H  0.19097889  0.91047417  0.41736485     0.06130
C1040       C  0.08782622  0.80338928  0.00281094     0.41830
C1041       C  0.14437869  0.94990673  0.37266023    -0.07190
Co1042     Co  0.12596725  0.87826046  0.43392786     0.73820
N1043       N  0.18426034  0.90612709  0.04484533    -0.47380
C1044       C  0.01927279  0.87794931  0.01115186     0.42100
N1045       N  0.07942647  0.84111222  0.36995139    -0.47370
Co1046     Co  0.12760636  0.87648473  0.07006361     0.73890
C1047       C  0.08249747  0.83774694  0.13696190    -0.07700
C1048       C  0.12129522  0.96955561  0.05485922    -0.07260
N1049       N  0.07737547  0.87570010  0.39730865    -0.26790
N1050       N  0.14832295  0.94704881  0.14167304    -0.47550
H1051       H  0.03064698  0.88155716  0.09759911     0.06100
C1052       C  0.09594716  0.81978598  0.45686483    -0.07670
Cl1053     Cl  0.11018722  0.89428463  0.00577123    -0.50670
C1054       C  0.20058293  0.91578359  0.00427766     0.41860
H1055       H  0.03835115  0.86403329  0.36881265     0.06070
N1056       N  0.09768700  0.81935995  0.04404976    -0.47380
C1057       C  0.22472926  0.91606531  0.00694123     0.41710
N1058       N  0.24217606  0.89337745  0.48610291     0.00600
C1059       C  0.31248679  0.85745277  0.14021476    -0.07280
H1060       H  0.33467195  0.96655465  0.13981693     0.06090
C1061       C  0.35876703  0.96866888  0.45662111    -0.07630
Co1062     Co  0.26109026  0.87806655  0.07818384     0.74180
N1063       N  0.30753163  0.92672802  0.11406149    -0.26810
Co1064     Co  0.32770103  0.91039405  0.07213909     0.74070
C1065       C  0.36824619  0.98524977  0.50298864     0.41810
N1066       N  0.30211677  0.92323821  0.39482859     0.00210
N1067       N  0.34700285  0.94471862  0.02647188     0.00320
N1068       N  0.26870346  0.84042223  0.14278477    -0.47650
H1069       H  0.22862013  0.91062807  0.09396552     0.06080
N1070       N  0.28172689  0.91290075  0.11634114     0.00610
N1071       N  0.34616272  0.89441636  0.02715352     0.00350
C1072       C  0.36871529  0.87669548  0.00414490     0.41950
N1073       N  0.27640436  0.90971264  0.39901675    -0.26260
C1074       C  0.23202342  0.81923200  0.05479074    -0.07180
N1075       N  0.23160772  0.90650584  0.46655293    -0.47370
N1076       N  0.36023344  0.88435398  0.04573600    -0.47590
C1077       C  0.22540379  0.80335778  0.00813749     0.41720
N1078       N  0.28061262  0.86322123  0.11820912     0.00590
N1079       N  0.27485994  0.86025268  0.39870861    -0.26280
N1080       N  0.24266842  0.89366243  0.03710266    -0.26780
N1081       N  0.30043083  0.87080004  0.39447209     0.00230
H1082       H  0.24129210  0.82508846  0.36944637     0.06120
H1083       H  0.36113248  0.87947399  0.41704741     0.06160
N1084       N  0.30632651  0.87410490  0.11548440    -0.26830
N1085       N  0.34572357  0.94389045  0.47481412    -0.26440
N1086       N  0.24166818  0.84344683  0.48673009     0.00600
C1087       C  0.28995789  0.94903389  0.15238099     0.41990
C1088       C  0.26559835  0.92186065  0.37407077    -0.07690
N1089       N  0.34482215  0.89363178  0.47548345    -0.26440
H1090       H  0.36065766  0.97437978  0.41610554     0.06140
N1091       N  0.27075428  0.92523185  0.13859265    -0.47660
H1092       H  0.24487762  0.91520121  0.37119313     0.06130
C1093       C  0.28270904  0.83406097  0.35138078     0.41830
C1094       C  0.23193575  0.90752257  0.05387997    -0.07190
Co1095     Co  0.25814978  0.87642587  0.44247353     0.73820
N1096       N  0.30984882  0.94539506  0.36817271    -0.47380
C1097       C  0.28704434  0.83487658  0.15776578     0.42100
N1098       N  0.23202050  0.81972510  0.46759798    -0.47370
Co1099     Co  0.32423950  0.90824708  0.43350850     0.73890
C1100       C  0.35859430  0.88274455  0.45755643    -0.07700
C1101       C  0.31482542  0.95020501  0.13704975    -0.07260
N1102       N  0.24213261  0.84378311  0.03777355    -0.26790
N1103       N  0.36018591  0.96908586  0.04467756    -0.47550
H1104       H  0.33196280  0.86006318  0.14352010     0.06100
C1105       C  0.26232578  0.83770730  0.37245996    -0.07670
Cl1106     Cl  0.29318957  0.89342696  0.00650505    -0.50670
C1107       C  0.28752593  0.94560379  0.35456825     0.41860
H1108       H  0.22890352  0.81278725  0.09482886     0.06070
N1109       N  0.30623585  0.85531593  0.36604241    -0.47380
C1110       C  0.05690392  0.71422467  0.35565839     0.41710
N1111       N  0.09233219  0.72308564  0.39496155     0.00600
C1112       C  0.12184558  0.64580808  0.05370020    -0.07280
H1113       H  0.03094441  0.64372205  0.09527546     0.06090
C1114       C  0.08278486  0.73935831  0.13584677    -0.07630
Co1115     Co  0.09465987  0.67702082  0.43905757     0.74180
N1116       N  0.06091931  0.65878614  0.03593045    -0.26810
Co1117     Co  0.09616580  0.68017169  0.07767893     0.74070
C1118       C  0.05822833  0.71786992  0.15298436     0.41810
N1119       N  0.11151456  0.76282624  0.02573676     0.00210
N1120       N  0.08076044  0.70242596  0.11589799     0.00320
N1121       N  0.12058997  0.64449974  0.46548573    -0.47650
H1122       H  0.03995791  0.66957086  0.36775329     0.06080
N1123       N  0.05994757  0.65744532  0.48428549     0.00610
N1124       N  0.13351557  0.70367862  0.11720676     0.00350
C1125       C  0.17066830  0.72082357  0.15894861     0.41950
N1126       N  0.11113962  0.76174573  0.47479114    -0.26260
C1127       C  0.14758988  0.69290439  0.36987534    -0.07180
N1128       N  0.08020960  0.73382661  0.37077390    -0.47370
N1129       N  0.14923118  0.69750749  0.14394362    -0.47590
C1130       C  0.16990851  0.71860991  0.35248827     0.41720
N1131       N  0.11041499  0.65845594  0.48412758     0.00590
N1132       N  0.16107069  0.76252528  0.47522622    -0.26280
N1133       N  0.07879992  0.69723944  0.39681511    -0.26780
N1134       N  0.16128413  0.76300461  0.02627067     0.00230
H1135       H  0.19223113  0.77570205  0.41863836     0.06120
H1136       H  0.17970995  0.76248577  0.14282633     0.06160
N1137       N  0.11097631  0.65962102  0.03582244    -0.26830
N1138       N  0.09485191  0.72815757  0.11243969    -0.26440
N1139       N  0.14189519  0.72448454  0.39421152     0.00600
C1140       C  0.01956303  0.63595134  0.00878000     0.41990
C1141       C  0.09692032  0.77177247  0.45686847    -0.07690
N1142       N  0.14412299  0.72931132  0.11387244    -0.26440
H1143       H  0.08985984  0.76018749  0.13838380     0.06140
N1144       N  0.03544066  0.64403641  0.46650447    -0.47660
H1145       H  0.09381325  0.77447241  0.41648650     0.06130
C1146       C  0.20139524  0.77927970  0.00540970     0.41830
C1147       C  0.05584657  0.68959145  0.37188457    -0.07190
Co1148     Co  0.12692717  0.74366167  0.43414453     0.73820
N1149       N  0.09826200  0.77357184  0.04408027    -0.47380
C1150       C  0.12811658  0.63588610  0.00704726     0.42100
N1151       N  0.16440647  0.73673290  0.36885815    -0.47370
Co1152     Co  0.12822962  0.74645714  0.06993269     0.73890
C1153       C  0.16684336  0.74148479  0.13966110    -0.07700
C1154       C  0.03636898  0.64561912  0.05459872    -0.07260
N1155       N  0.13108640  0.69873550  0.39608149    -0.26790
N1156       N  0.05797761  0.69514044  0.14011827    -0.47550
H1157       H  0.12499602  0.64313032  0.09421063     0.06100
C1158       C  0.18565187  0.77258256  0.45856885    -0.07670
Cl1159     Cl  0.11134198  0.71142580  0.00524646    -0.50670
C1160       C  0.08834623  0.77954580  0.00273319     0.41860
H1161       H  0.14491338  0.67345605  0.36496649     0.06070
N1162       N  0.18493291  0.77269628  0.04572835    -0.47380
C1163       C  0.28500548  0.58449721  0.00840073     0.41710
N1164       N  0.26909562  0.60856036  0.48717284     0.00600
C1165       C  0.19541344  0.64052176  0.13815862    -0.07280
H1166       H  0.17908721  0.53354288  0.14381347     0.06090
C1167       C  0.15307516  0.52996507  0.45842909    -0.07630
Co1168     Co  0.24944988  0.62299310  0.07922727     0.74180
N1169       N  0.20476663  0.57341490  0.11647333    -0.26810
Co1170     Co  0.18336360  0.58816264  0.07331019     0.74070
C1171       C  0.14312159  0.51400779  0.00515086     0.41810
N1172       N  0.21062365  0.57621392  0.39448023     0.00210
N1173       N  0.16551829  0.55410047  0.02798074     0.00320
N1174       N  0.23947827  0.65980557  0.14078197    -0.47650
H1175       H  0.28187703  0.59056550  0.09505041     0.06080
N1176       N  0.23045819  0.58834894  0.11917473     0.00610
N1177       N  0.16387249  0.60266235  0.02742225     0.00350
C1178       C  0.14175351  0.62081066  0.00413860     0.41950
N1179       N  0.23616813  0.59144622  0.39867758    -0.26260
C1180       C  0.27667755  0.68166942  0.05470269    -0.07180
N1181       N  0.27857901  0.59441197  0.46792897    -0.47370
N1182       N  0.15018420  0.61317634  0.04578954    -0.47590
C1183       C  0.28320206  0.69751574  0.00793962     0.41720
N1184       N  0.22866986  0.63655500  0.11830420     0.00590
N1185       N  0.23390520  0.63899181  0.39882001    -0.26280
N1186       N  0.26868400  0.60839137  0.03821239    -0.26780
N1187       N  0.20822684  0.62655115  0.39463495     0.00230
H1188       H  0.26531355  0.67597721  0.37040518     0.06120
H1189       H  0.14927935  0.61780105  0.41714527     0.06160
N1190       N  0.20291400  0.62446981  0.11551433    -0.26830
N1191       N  0.16679183  0.55460988  0.47626716    -0.26440
N1192       N  0.26724556  0.65739017  0.48690139     0.00600
C1193       C  0.22396118  0.55332605  0.15807588     0.41990
C1194       C  0.24873721  0.58146394  0.37241833    -0.07690
N1195       N  0.16508156  0.60313581  0.47569447    -0.26440
H1196       H  0.15035640  0.52408929  0.41794376     0.06140
N1197       N  0.24236131  0.57737864  0.14344976    -0.47660
H1198       H  0.26977484  0.58998870  0.36939042     0.06130
C1199       C  0.22259911  0.66321147  0.35343939     0.41830
C1200       C  0.27872241  0.59392713  0.05508381    -0.07190
Co1201     Co  0.25225979  0.62447759  0.44277979     0.73820
N1202       N  0.20484176  0.55487254  0.36618811    -0.47380
C1203       C  0.22017844  0.66427221  0.15387865     0.42100
N1204       N  0.27660013  0.68104907  0.46754989    -0.47370
Co1205     Co  0.18674598  0.58954266  0.43374302     0.73890
C1206       C  0.15147259  0.61420164  0.45764244    -0.07700
C1207       C  0.19856716  0.55048924  0.14077032    -0.07260
N1208       N  0.26694978  0.65713364  0.03793314    -0.26790
N1209       N  0.15152186  0.53003154  0.04673517    -0.47550
H1210       H  0.17554401  0.63693629  0.14031569     0.06100
C1211       C  0.24460774  0.66177230  0.37328648    -0.07670
Cl1212     Cl  0.21731675  0.60588498  0.00720391    -0.50670
C1213       C  0.22833644  0.55722217  0.35137914     0.41860
H1214       H  0.28000306  0.68815869  0.09473075     0.06070
N1215       N  0.20032075  0.64065108  0.36744301    -0.47380
O1216       O  0.21434617  0.96928753  0.83459259    -0.80890
O1217       O  0.26289217  0.96833423  0.66613997    -0.80910
O1218       O  0.19596745  0.98375943  0.70758073    -0.80920
O1219       O  0.30394388  0.98276380  0.80042220    -0.80860
O1220       O  0.21687904  0.96762477  0.66765427    -0.80980
O1221       O  0.26417706  0.96854350  0.83307569    -0.80900
O1222       O  0.29957588  0.98483495  0.70748044    -0.80890
O1223       O  0.18998010  0.98435262  0.80014730    -0.80920
C1224       C  0.19192194  0.96868070  0.83026651     1.08800
C1225       C  0.28433062  0.96885848  0.67510317     1.08690
C1226       C  0.19560992  0.96740933  0.67654007     1.08830
C1227       C  0.28550767  0.96702931  0.82923652     1.08700
O1228       O  0.29313318  0.52650403  0.85047575    -0.80890
O1229       O  0.24319961  0.52548505  0.65497022    -0.80960
O1230       O  0.22516178  0.52970326  0.78042602    -0.80900
O1231       O  0.31429410  0.52610327  0.72775064    -0.80880
O1232       O  0.29273666  0.52631478  0.65562506    -0.80930
O1233       O  0.24539220  0.52747528  0.85000357    -0.80900
O1234       O  0.31517111  0.52886360  0.78032198    -0.80860
O1235       O  0.22309501  0.52658542  0.72841487    -0.80930
Co1236     Co  0.25474409  0.99889354  0.83168178     1.51530
Co1237     Co  0.25442983  0.49797580  0.66752406     1.51690
Co1238     Co  0.22198480  0.99560482  0.76483517     1.51570
Co1239     Co  0.28409221  0.49508919  0.76448997     1.51470
O1240       O  0.25887211  0.00686851  0.74688795    -1.42820
C1241       C  0.31511252  0.53597475  0.82656637     1.08730
C1242       C  0.23039778  0.53402419  0.68130958     1.08820
C1243       C  0.23306427  0.53720152  0.82633785     1.08760
C1244       C  0.31418338  0.53451983  0.68149041     1.08730
O1245       O  0.47800623  0.76043941  0.84998958    -0.80890
O1246       O  0.47888567  0.71193378  0.65469656    -0.80910
O1247       O  0.47774768  0.78136252  0.72747682    -0.80920
O1248       O  0.47638178  0.68975700  0.77939196    -0.80860
O1249       O  0.47866209  0.76080955  0.65457623    -0.80980
O1250       O  0.47821531  0.71179433  0.84944809    -0.80900
O1251       O  0.47893376  0.69058850  0.72711301    -0.80890
O1252       O  0.47510433  0.77962196  0.77939266    -0.80920
C1253       C  0.46836206  0.77280749  0.82602177     1.08800
C1254       C  0.47071040  0.69054238  0.68072725     1.08690
C1255       C  0.46992780  0.77346860  0.68075898     1.08830
C1256       C  0.46915236  0.68980157  0.82558346     1.08700
O1257       O  0.03602774  0.73991799  0.83370550    -0.80890
O1258       O  0.03658365  0.78815542  0.66679964    -0.80960
O1259       O  0.02036309  0.81481539  0.79893348    -0.80900
O1260       O  0.02103764  0.70583266  0.70628914    -0.80880
O1261       O  0.03672589  0.74275047  0.66597430    -0.80930
O1262       O  0.03572759  0.79055839  0.83305528    -0.80900
O1263       O  0.02178703  0.70069853  0.79827554    -0.80860
O1264       O  0.02027117  0.80892743  0.70647605    -0.80930
Co1265     Co  0.00603252  0.75016896  0.83107163     1.51530
Co1266     Co  0.00668017  0.75040745  0.66685365     1.51690
Co1267     Co  0.00908105  0.78286166  0.76343053     1.51570
Co1268     Co  0.00996216  0.72088080  0.76296582     1.51470
O1269       O  0.99792544  0.74595891  0.74620759    -1.42820
C1270       C  0.03696495  0.71823502  0.82910990     1.08730
C1271       C  0.03669515  0.80938645  0.67562859     1.08820
C1272       C  0.03608802  0.81291351  0.82897197     1.08760
C1273       C  0.03705371  0.72170671  0.67471723     1.08730
O1274       O  0.24605782  0.70943918  0.83188093    -0.80890
O1275       O  0.29324509  0.75620556  0.66741788    -0.80910
O1276       O  0.21038941  0.69067140  0.70732888    -0.80920
O1277       O  0.32055428  0.79947927  0.79947171    -0.80860
O1278       O  0.24718305  0.71075756  0.66641959    -0.80980
O1279       O  0.29589492  0.75996664  0.83370006    -0.80900
O1280       O  0.31441440  0.79328870  0.70737565    -0.80890
O1281       O  0.20611283  0.68398051  0.79981588    -0.80920
C1282       C  0.22461541  0.68662487  0.82824527     1.08800
C1283       C  0.31459621  0.77727783  0.67625304     1.08690
C1284       C  0.22570480  0.68983581  0.67547141     1.08830
C1285       C  0.31841925  0.78173440  0.82940965     1.08700
O1286       O  0.26521056  0.78720307  0.84977495    -0.80890
O1287       O  0.21738719  0.73883841  0.65549235    -0.80960
O1288       O  0.19512740  0.71896260  0.78026928    -0.80900
O1289       O  0.28771153  0.80888540  0.72802561    -0.80880
O1290       O  0.26711827  0.78769321  0.65484007    -0.80930
O1291       O  0.21720970  0.73815758  0.85071225    -0.80900
O1292       O  0.28557689  0.80978951  0.78029144    -0.80860
O1293       O  0.19592339  0.71714898  0.72777667    -0.80930
Co1294     Co  0.25559278  0.74921729  0.83124559     1.51530
Co1295     Co  0.25572031  0.74889771  0.66738743     1.51690
Co1296     Co  0.22609319  0.71632131  0.76428076     1.51570
Co1297     Co  0.28841470  0.77881722  0.76442568     1.51470
O1298       O  0.25138806  0.75336699  0.74670086    -1.42820
C1299       C  0.27778536  0.80932669  0.82625210     1.08730
C1300       C  0.19596518  0.72556131  0.68146052     1.08820
C1301       C  0.19518932  0.72562157  0.82687911     1.08760
C1302       C  0.28033454  0.80907225  0.68102323     1.08730
C1303       C  0.45002970  0.77983595  0.85164500     0.41710
N1304       N  0.41617509  0.77407459  0.89384070     0.00600
C1305       C  0.39016049  0.85333536  0.55382292    -0.07280
H1306       H  0.47925282  0.85512483  0.59742714     0.06090
C1307       C  0.42449986  0.75706644  0.63955389    -0.07630
Co1308     Co  0.41712622  0.82154712  0.93967582     0.74180
N1309       N  0.44986661  0.83846568  0.53723666    -0.26810
Co1310     Co  0.41475011  0.81827805  0.57843030     0.74070
C1311       C  0.44914112  0.77787168  0.65826387     0.41810
N1312       N  0.39634510  0.73526796  0.52687011     0.00210
N1313       N  0.42856935  0.79477254  0.61790778     0.00320
N1314       N  0.39179618  0.85482775  0.96568650    -0.47650
H1315       H  0.47083726  0.82487174  0.86595871     0.06080
N1316       N  0.45109355  0.83971449  0.98559360     0.00610
N1317       N  0.37727252  0.79638039  0.61677876     0.00350
C1318       C  0.33962980  0.78107351  0.65500928     0.41950
N1319       N  0.39690417  0.73636674  0.97586774    -0.26260
C1320       C  0.36621332  0.80987861  0.87158476    -0.07180
N1321       N  0.42611763  0.76184166  0.86733942    -0.47370
N1322       N  0.36194495  0.80377120  0.64122471    -0.47590
C1323       C  0.34238327  0.78545427  0.85531669     0.41720
N1324       N  0.40227085  0.84115651  0.98449749     0.00590
N1325       N  0.34778926  0.73746393  0.97554964    -0.26280
N1326       N  0.43155036  0.79974449  0.89661693    -0.26780
N1327       N  0.34748638  0.73690206  0.52655569     0.00230
H1328       H  0.31696563  0.72513603  0.91848636     0.06120
H1329       H  0.32891896  0.73870198  0.64132614     0.06160
N1330       N  0.40134097  0.83980014  0.53615182    -0.26830
N1331       N  0.41362590  0.76912605  0.61447037    -0.26440
N1332       N  0.36833151  0.77600489  0.89518775     0.00600
C1333       C  0.49077409  0.86260446  0.01098142     0.41990
C1334       C  0.41225774  0.72748016  0.95887651    -0.07690
N1335       N  0.36568909  0.77066602  0.61392979    -0.26440
H1336       H  0.41652523  0.73608904  0.64253018     0.06140
N1337       N  0.47545186  0.85406732  0.96822326    -0.47660
H1338       H  0.41616255  0.72516731  0.91892071     0.06130
C1339       C  0.30746251  0.72144562  0.50528088     0.41830
C1340       C  0.45386783  0.80548775  0.87039468    -0.07190
Co1341     Co  0.38182909  0.75514500  0.93444200     0.73820
N1342       N  0.41059261  0.72575686  0.54582980    -0.47380
C1343       C  0.38385347  0.86313085  0.50713218     0.42100
N1344       N  0.34550845  0.76557491  0.87090488    -0.47370
Co1345     Co  0.38041946  0.75226661  0.57077332     0.73890
C1346       C  0.34264770  0.75953522  0.63826205    -0.07700
C1347       C  0.47410031  0.85240049  0.55655751    -0.07260
N1348       N  0.38112391  0.80185732  0.89683853    -0.26790
N1349       N  0.45070336  0.80108729  0.64385952    -0.47550
H1350       H  0.38631044  0.85543209  0.59420425     0.06100
C1351       C  0.32332661  0.72798277  0.95858661    -0.07670
Cl1352     Cl  0.39878983  0.78720389  0.50583611    -0.50670
C1353       C  0.42137338  0.72051081  0.50508978     0.41860
H1354       H  0.37073445  0.83000767  0.86735027     0.06070
N1355       N  0.32384300  0.72766435  0.54571501    -0.47380
C1356       C  0.34035425  0.55483024  0.85179657     0.41710
N1357       N  0.36782472  0.58882711  0.89433695     0.00600
C1358       C  0.47374815  0.61558707  0.55442547    -0.07280
H1359       H  0.38487710  0.52451192  0.59301818     0.06090
C1360       C  0.34285666  0.57978540  0.63985126    -0.07630
Co1361     Co  0.41568728  0.58953517  0.93830401     0.74180
N1362       N  0.39934512  0.55525660  0.53496237    -0.26810
Co1363     Co  0.41396506  0.59053064  0.57767843     0.74070
C1364       C  0.33937275  0.55538203  0.65899054     0.41810
N1365       N  0.34865044  0.60749385  0.52691494     0.00210
N1366       N  0.37648653  0.57596908  0.61721808     0.00320
N1367       N  0.47477426  0.61514070  0.96627897    -0.47650
H1368       H  0.36619755  0.53562731  0.86316611     0.06080
N1369       N  0.39997502  0.55479219  0.98322544     0.00610
N1370       N  0.42887345  0.62806514  0.61750060     0.00350
C1371       C  0.44980592  0.66532214  0.65866225     0.41950
N1372       N  0.34893151  0.60751122  0.97593252    -0.26260
C1373       C  0.45342874  0.64202408  0.86845124    -0.07180
N1374       N  0.34524971  0.57817352  0.86908720    -0.47370
N1375       N  0.45103781  0.64353086  0.64379615    -0.47590
C1376       C  0.45045043  0.66449048  0.85062777     0.41900
N1377       N  0.45031077  0.60476911  0.98391449     0.00590
N1378       N  0.39917254  0.65672649  0.97640317    -0.26280
N1379       N  0.37916869  0.57439760  0.89539040    -0.26780
N1380       N  0.39841742  0.65716900  0.52734197     0.00230
H1381       H  0.41849230  0.68727773  0.91956055     0.06120
H1382       H  0.41784736  0.67526872  0.64297869     0.06160
N1383       N  0.44927069  0.60491480  0.53563623    -0.26830
N1384       N  0.36558838  0.59069984  0.61409015    -0.26440
N1385       N  0.41666618  0.63725766  0.89384086     0.00600
C1386       C  0.38178396  0.51419993  0.50585286     0.41990
C1387       C  0.32441803  0.59307678  0.95898930    -0.07690
N1388       N  0.41439346  0.63923150  0.61434288    -0.26440
H1389       H  0.32981521  0.58766167  0.64323861     0.06140
N1390       N  0.38954959  0.53056976  0.96444409    -0.47660
H1391       H  0.31794793  0.58993815  0.91897781     0.06130
C1392       C  0.42283853  0.69719576  0.50564593     0.41830
C1393       C  0.36304725  0.55205990  0.86868132    -0.07190
Co1394     Co  0.38278691  0.62296137  0.93467089     0.73820
N1395       N  0.32498641  0.59339077  0.54613673    -0.47380
C1396       C  0.49055689  0.62231784  0.50867171     0.42100
N1397       N  0.42709554  0.65952471  0.86758940    -0.47370
Co1398     Co  0.38143408  0.62397471  0.57085523     0.73890
C1399       C  0.42549118  0.66201994  0.63983315    -0.07700
C1400       C  0.38821237  0.53043740  0.55256650    -0.07260
N1401       N  0.43115595  0.62601292  0.89544473    -0.26790
N1402       N  0.36098085  0.55391849  0.64384059    -0.47550
H1403       H  0.47909537  0.61844941  0.59519360     0.06100
C1404       C  0.41464572  0.68101455  0.95953869    -0.07670
Cl1405     Cl  0.39869257  0.60652335  0.50539328    -0.50670
C1406       C  0.30860461  0.58382418  0.50563338     0.41860
H1407       H  0.46983765  0.63884773  0.86297816     0.06070
N1408       N  0.41236898  0.68099443  0.54639291    -0.47380
C1409       C  0.16778651  0.94863526  0.85637458     0.41710
N1410       N  0.14079243  0.91310031  0.89514142     0.00600
C1411       C  0.03593349  0.88482664  0.55682899    -0.07280
H1412       H  0.12520182  0.97545212  0.59527025     0.06090
C1413       C  0.16687664  0.92153827  0.63736858    -0.07630
Co1414     Co  0.09300423  0.91143992  0.94010708     0.74180
N1415       N  0.10962409  0.94487965  0.53699329    -0.26810
Co1416     Co  0.09527745  0.90990992  0.57893342     0.74070
C1417       C  0.17045857  0.94629794  0.65486875     0.41810
N1418       N  0.16047184  0.89294282  0.52570352     0.00210
N1419       N  0.13258013  0.92444444  0.61708189     0.00320
N1420       N  0.03470534  0.88537874  0.96854802    -0.47650
H1421       H  0.14057761  0.96601006  0.86902138     0.06080
N1422       N  0.10871134  0.94543111  0.98536155     0.00610
N1423       N  0.08028019  0.87253329  0.61735461     0.00350
C1424       C  0.05795539  0.83455465  0.65454922     0.41950
N1425       N  0.16011070  0.89332290  0.97465342    -0.26260
C1426       C  0.05445289  0.86023928  0.87238752    -0.07180
N1427       N  0.16379336  0.92516256  0.87130231    -0.47370
N1428       N  0.05758116  0.85695131  0.64176252    -0.47590
C1429       C  0.05595251  0.83705296  0.85521638     0.41720
N1430       N  0.05910027  0.89614763  0.98606959     0.00590
N1431       N  0.11020688  0.84412230  0.97461913    -0.26280
N1432       N  0.12882119  0.92689887  0.89726078    -0.26780
N1433       N  0.11074592  0.84339832  0.52563080     0.00230
H1434       H  0.09264728  0.81392820  0.91651786     0.06120
H1435       H  0.08957009  0.82400225  0.63904465     0.06160
N1436       N  0.06025698  0.89585816  0.53769810    -0.26830
N1437       N  0.14363072  0.90987902  0.61352927    -0.26440
N1438       N  0.09128965  0.86387838  0.89465356     0.00600
C1439       C  0.12779811  0.98559604  0.50818273     0.41990
C1440       C  0.18468957  0.90716705  0.95752900    -0.07690
N1441       N  0.09444075  0.86105997  0.61350470    -0.26440
H1442       H  0.18032330  0.91411982  0.63992381     0.06140
N1443       N  0.11958200  0.96956550  0.96660752    -0.47660
H1444       H  0.19097889  0.91047417  0.91736488     0.06130
C1445       C  0.08782622  0.80338928  0.50281093     0.41830
C1446       C  0.14437870  0.94990673  0.87266024    -0.07190
Co1447     Co  0.12596725  0.87826046  0.93392788     0.73820
N1448       N  0.18426034  0.90612709  0.54484531    -0.47380
C1449       C  0.01927278  0.87794931  0.51115185     0.42100
N1450       N  0.07942648  0.84111222  0.86995141    -0.47370
Co1451     Co  0.12760636  0.87648474  0.57006359     0.73890
C1452       C  0.08249748  0.83774695  0.63696189    -0.07700
C1453       C  0.12129521  0.96955561  0.55485920    -0.07260
N1454       N  0.07737547  0.87570010  0.89730867    -0.26790
N1455       N  0.14832295  0.94704881  0.64167302    -0.47550
H1456       H  0.03064698  0.88155716  0.59759910     0.06100
C1457       C  0.09594716  0.81978598  0.95686484    -0.07670
Cl1458     Cl  0.11018722  0.89428463  0.50577121    -0.50670
C1459       C  0.20058293  0.91578359  0.50427764     0.41860
H1460       H  0.03835115  0.86403329  0.86881267     0.06070
N1461       N  0.09768700  0.81935995  0.54404975    -0.47380
C1462       C  0.22472926  0.91606531  0.50694122     0.41710
N1463       N  0.24217606  0.89337746  0.98610292     0.00600
C1464       C  0.31248679  0.85745277  0.64021476    -0.07280
H1465       H  0.33467195  0.96655464  0.63981694     0.06090
C1466       C  0.35876703  0.96866888  0.95662110    -0.07630
Co1467     Co  0.26109025  0.87806654  0.57818384     0.74180
N1468       N  0.30753163  0.92672801  0.61406149    -0.26810
Co1469     Co  0.32770103  0.91039405  0.57213910     0.74070
C1470       C  0.36824619  0.98524977  0.00298862     0.41810
N1471       N  0.30211677  0.92323820  0.89482859     0.00210
N1472       N  0.34700285  0.94471862  0.52647190     0.00320
N1473       N  0.26870345  0.84042222  0.64278476    -0.47650
H1474       H  0.22862012  0.91062806  0.59396550     0.06080
N1475       N  0.28172688  0.91290074  0.61634114     0.00610
N1476       N  0.34616272  0.89441636  0.52715353     0.00350
C1477       C  0.36871529  0.87669547  0.50414491     0.41950
N1478       N  0.27640435  0.90971264  0.89901675    -0.26260
C1479       C  0.23202342  0.81923199  0.55479072    -0.07180
N1480       N  0.23160772  0.90650585  0.96655294    -0.47370
N1481       N  0.36023344  0.88435397  0.54573601    -0.47590
C1482       C  0.22540379  0.80335777  0.50813747     0.41720
N1483       N  0.28061261  0.86322123  0.61820912     0.00590
N1484       N  0.27485994  0.86025268  0.89870861    -0.26280
N1485       N  0.24266842  0.89366243  0.53710265    -0.26780
N1486       N  0.30043083  0.87080004  0.89447209     0.00230
H1487       H  0.24129210  0.82508846  0.86944638     0.06120
H1488       H  0.36113248  0.87947398  0.91704740     0.06160
N1489       N  0.30632651  0.87410489  0.61548440    -0.26830
N1490       N  0.34572357  0.94389045  0.97481410    -0.26440
N1491       N  0.24166818  0.84344683  0.98673010     0.00600
C1492       C  0.28995788  0.94903388  0.65238099     0.41990
C1493       C  0.26559835  0.92186065  0.87407077    -0.07690
N1494       N  0.34482215  0.89363178  0.97548344    -0.26440
H1495       H  0.36065766  0.97437978  0.91610552     0.06140
N1496       N  0.27075427  0.92523184  0.63859265    -0.47660
H1497       H  0.24487761  0.91520121  0.87119314     0.06130
C1498       C  0.28270903  0.83406097  0.85138078     0.41830
C1499       C  0.23193574  0.90752257  0.55387996    -0.07190
Co1500     Co  0.25814977  0.87642587  0.94247354     0.73820
N1501       N  0.30984882  0.94539506  0.86817270    -0.47380
C1502       C  0.28704433  0.83487657  0.65776577     0.42100
N1503       N  0.23202049  0.81972510  0.96759799    -0.47370
Co1504     Co  0.32423949  0.90824708  0.93350849     0.73890
C1505       C  0.35859430  0.88274455  0.95755642    -0.07700
C1506       C  0.31482541  0.95020501  0.63704976    -0.07260
N1507       N  0.24213261  0.84378311  0.53777354    -0.26790
N1508       N  0.36018590  0.96908586  0.54467757    -0.47550
H1509       H  0.33196280  0.86006317  0.64352010     0.06100
C1510       C  0.26232577  0.83770730  0.87245997    -0.07670
Cl1511     Cl  0.29318956  0.89342696  0.50650505    -0.50670
C1512       C  0.28752593  0.94560379  0.85456824     0.41860
H1513       H  0.22890352  0.81278724  0.59482884     0.06070
N1514       N  0.30623584  0.85531592  0.86604241    -0.47380
C1515       C  0.05690393  0.71422467  0.85565839     0.41710
N1516       N  0.09233220  0.72308564  0.89496155     0.00600
C1517       C  0.12184558  0.64580808  0.55370019    -0.07280
H1518       H  0.03094441  0.64372206  0.59527546     0.06090
C1519       C  0.08278486  0.73935832  0.63584677    -0.07630
Co1520     Co  0.09465987  0.67702082  0.93905758     0.74180
N1521       N  0.06091931  0.65878614  0.53593045    -0.26810
Co1522     Co  0.09616580  0.68017169  0.57767893     0.74070
C1523       C  0.05822833  0.71786993  0.65298437     0.41810
N1524       N  0.11151456  0.76282624  0.52573675     0.00210
N1525       N  0.08076044  0.70242596  0.61589799     0.00320
N1526       N  0.12058997  0.64449974  0.96548574    -0.47650
H1527       H  0.03995792  0.66957087  0.86775330     0.06080
N1528       N  0.05994757  0.65744532  0.98428550     0.00610
N1529       N  0.13351557  0.70367863  0.61720675     0.00350
C1530       C  0.17066830  0.72082357  0.65894859     0.41950
N1531       N  0.11113962  0.76174573  0.97479115    -0.26260
C1532       C  0.14758988  0.69290439  0.86987534    -0.07180
N1533       N  0.08020960  0.73382662  0.87077391    -0.47370
N1534       N  0.14923118  0.69750749  0.64394362    -0.47590
C1535       C  0.16990851  0.71860991  0.85248827     0.41720
N1536       N  0.11041500  0.65845594  0.98412758     0.00590
N1537       N  0.16107069  0.76252528  0.97522623    -0.26280
N1538       N  0.07879993  0.69723944  0.89681512    -0.26780
N1539       N  0.16128413  0.76300461  0.52627065     0.00230
H1540       H  0.19223113  0.77570205  0.91863838     0.06120
H1541       H  0.17970996  0.76248577  0.64282631     0.06160
N1542       N  0.11097631  0.65962103  0.53582243    -0.26830
N1543       N  0.09485192  0.72815758  0.61243969    -0.26440
N1544       N  0.14189520  0.72448454  0.89421153     0.00600
C1545       C  0.01956303  0.63595134  0.50878000     0.41990
C1546       C  0.09692032  0.77177247  0.95686848    -0.07690
N1547       N  0.14412299  0.72931132  0.61387243    -0.26440
H1548       H  0.08985984  0.76018749  0.63838380     0.06140
N1549       N  0.03544066  0.64403641  0.96650446    -0.47660
H1550       H  0.09381325  0.77447241  0.91648651     0.06130
C1551       C  0.20139524  0.77927970  0.50540968     0.41830
C1552       C  0.05584657  0.68959145  0.87188458    -0.07190
Co1553     Co  0.12692718  0.74366167  0.93414454     0.73820
N1554       N  0.09826200  0.77357184  0.54408026    -0.47380
C1555       C  0.12811658  0.63588610  0.50704726     0.42100
N1556       N  0.16440647  0.73673290  0.86885816    -0.47370
Co1557     Co  0.12822962  0.74645714  0.56993268     0.73890
C1558       C  0.16684337  0.74148479  0.63966108    -0.07700
C1559       C  0.03636898  0.64561912  0.55459873    -0.07260
N1560       N  0.13108640  0.69873550  0.89608150    -0.26790
N1561       N  0.05797762  0.69514045  0.64011828    -0.47550
H1562       H  0.12499602  0.64313032  0.59421062     0.06100
C1563       C  0.18565187  0.77258256  0.95856887    -0.07670
Cl1564     Cl  0.11134198  0.71142580  0.50524645    -0.50670
C1565       C  0.08834623  0.77954580  0.50273319     0.41860
H1566       H  0.14491338  0.67345605  0.86496649     0.06070
N1567       N  0.18493291  0.77269628  0.54572833    -0.47380
C1568       C  0.28500548  0.58449721  0.50840075     0.41710
N1569       N  0.26909562  0.60856036  0.98717283     0.00600
C1570       C  0.19541343  0.64052176  0.63815862    -0.07280
H1571       H  0.17908720  0.53354287  0.64381346     0.06090
C1572       C  0.15307517  0.52996507  0.95842910    -0.07630
Co1573     Co  0.24944987  0.62299310  0.57922728     0.74180
N1574       N  0.20476662  0.57341490  0.61647333    -0.26810
Co1575     Co  0.18336359  0.58816264  0.57331019     0.74070
C1576       C  0.14312158  0.51400779  0.50515084     0.41810
N1577       N  0.21062365  0.57621392  0.89448023     0.00210
N1578       N  0.16551828  0.55410046  0.52798073     0.00320
N1579       N  0.23947826  0.65980556  0.64078198    -0.47650
H1580       H  0.28187703  0.59056550  0.59505043     0.06080
N1581       N  0.23045818  0.58834893  0.61917473     0.00610
N1582       N  0.16387249  0.60266235  0.52742225     0.00350
C1583       C  0.14175351  0.62081066  0.50413859     0.41950
N1584       N  0.23616813  0.59144622  0.89867757    -0.26260
C1585       C  0.27667754  0.68166942  0.55470271    -0.07180
N1586       N  0.27857901  0.59441197  0.96792896    -0.47370
N1587       N  0.15018419  0.61317634  0.54578953    -0.47590
C1588       C  0.28320206  0.69751573  0.50793964     0.41720
N1589       N  0.22866985  0.63655499  0.61830420     0.00590
N1590       N  0.23390520  0.63899181  0.89882000    -0.26280
N1591       N  0.26868399  0.60839136  0.53821241    -0.26780
N1592       N  0.20822684  0.62655115  0.89463495     0.00230
H1593       H  0.26531355  0.67597721  0.87040516     0.06120
H1594       H  0.14927935  0.61780105  0.91714527     0.06160
N1595       N  0.20291399  0.62446980  0.61551434    -0.26830
N1596       N  0.16679184  0.55460988  0.97626717    -0.26440
N1597       N  0.26724556  0.65739017  0.98690137     0.00600
C1598       C  0.22396117  0.55332604  0.65807588     0.41990
C1599       C  0.24873721  0.58146394  0.87241832    -0.07690
N1600       N  0.16508156  0.60313581  0.97569448    -0.26440
H1601       H  0.15035641  0.52408929  0.91794377     0.06140
N1602       N  0.24236130  0.57737863  0.64344977    -0.47660
H1603       H  0.26977484  0.58998870  0.86939041     0.06130
C1604       C  0.22259911  0.66321146  0.85343938     0.41830
C1605       C  0.27872240  0.59392712  0.55508383    -0.07190
Co1606     Co  0.25225979  0.62447759  0.94277978     0.73820
N1607       N  0.20484176  0.55487254  0.86618811    -0.47380
C1608       C  0.22017844  0.66427220  0.65387866     0.42100
N1609       N  0.27660013  0.68104908  0.96754987    -0.47370
Co1610     Co  0.18674598  0.58954266  0.93374303     0.73890
C1611       C  0.15147259  0.61420164  0.95764245    -0.07700
C1612       C  0.19856715  0.55048924  0.64077032    -0.07260
N1613       N  0.26694977  0.65713364  0.53793316    -0.26790
N1614       N  0.15152185  0.53003154  0.54673515    -0.47550
H1615       H  0.17554400  0.63693629  0.64031569     0.06100
C1616       C  0.24460774  0.66177230  0.87328647    -0.07670
Cl1617     Cl  0.21731675  0.60588498  0.50720391    -0.50670
C1618       C  0.22833644  0.55722217  0.85137913     0.41860
H1619       H  0.28000306  0.68815868  0.59473077     0.06070
N1620       N  0.20032074  0.64065108  0.86744301    -0.47380
O1621       O  0.71434617  0.46928754  0.33459259    -0.80890
O1622       O  0.76289218  0.46833423  0.16613998    -0.80910
O1623       O  0.69596745  0.48375944  0.20758073    -0.80920
O1624       O  0.80394389  0.48276381  0.30042221    -0.80860
O1625       O  0.71687904  0.46762477  0.16765429    -0.80980
O1626       O  0.76417707  0.46854351  0.33307569    -0.80900
O1627       O  0.79957588  0.48483496  0.20748044    -0.80890
O1628       O  0.68998010  0.48435263  0.30014730    -0.80920
C1629       C  0.69192194  0.46868070  0.33026650     1.08800
C1630       C  0.78433062  0.46885849  0.17510318     1.08690
C1631       C  0.69560992  0.46740933  0.17654008     1.08830
C1632       C  0.78550767  0.46702932  0.32923653     1.08700
O1633       O  0.79313319  0.02650403  0.35047575    -0.80890
O1634       O  0.74319962  0.02548505  0.15497021    -0.80960
O1635       O  0.72516179  0.02970327  0.28042602    -0.80900
O1636       O  0.81429410  0.02610327  0.22775064    -0.80880
O1637       O  0.79273667  0.02631478  0.15562506    -0.80930
O1638       O  0.74539220  0.02747528  0.35000358    -0.80900
O1639       O  0.81517111  0.02886360  0.28032198    -0.80860
O1640       O  0.72309503  0.02658543  0.22841487    -0.80930
Co1641     Co  0.75474409  0.49889354  0.33168178     1.51530
Co1642     Co  0.75442984  0.99797580  0.16752406     1.51690
Co1643     Co  0.72198480  0.49560483  0.26483517     1.51570
Co1644     Co  0.78409221  0.99508919  0.26448997     1.51470
O1645       O  0.75887212  0.50686852  0.24688795    -1.42820
C1646       C  0.81511252  0.03597475  0.32656637     1.08730
C1647       C  0.73039779  0.03402420  0.18130957     1.08820
C1648       C  0.73306427  0.03720152  0.32633785     1.08760
C1649       C  0.81418338  0.03451983  0.18149041     1.08730
O1650       O  0.97800622  0.26043941  0.34998958    -0.80890
O1651       O  0.97888566  0.21193377  0.15469656    -0.80910
O1652       O  0.97774766  0.28136251  0.22747682    -0.80920
O1653       O  0.97638177  0.18975699  0.27939196    -0.80860
O1654       O  0.97866208  0.26080954  0.15457622    -0.80980
O1655       O  0.97821531  0.21179432  0.34944809    -0.80900
O1656       O  0.97893375  0.19058849  0.22711301    -0.80890
O1657       O  0.97510432  0.27962195  0.27939266    -0.80920
C1658       C  0.96836205  0.27280748  0.32602177     1.08800
C1659       C  0.97071039  0.19054237  0.18072724     1.08690
C1660       C  0.96992779  0.27346859  0.18075898     1.08830
C1661       C  0.96915235  0.18980156  0.32558346     1.08700
O1662       O  0.53602773  0.23991798  0.33370549    -0.80890
O1663       O  0.53658364  0.28815541  0.16679964    -0.80960
O1664       O  0.52036308  0.31481538  0.29893348    -0.80900
O1665       O  0.52103763  0.20583264  0.20628914    -0.80880
O1666       O  0.53672588  0.24275046  0.16597430    -0.80930
O1667       O  0.53572758  0.29055838  0.33305527    -0.80900
O1668       O  0.52178702  0.20069851  0.29827554    -0.80860
O1669       O  0.52027116  0.30892742  0.20647605    -0.80930
Co1670     Co  0.50603251  0.25016895  0.33107163     1.51530
Co1671     Co  0.50668016  0.25040744  0.16685364     1.51690
Co1672     Co  0.50908104  0.28286165  0.26343053     1.51570
Co1673     Co  0.50996215  0.22088078  0.26296582     1.51470
O1674       O  0.49792543  0.24595890  0.24620759    -1.42820
C1675       C  0.53696494  0.21823500  0.32910989     1.08730
C1676       C  0.53669514  0.30938644  0.17562859     1.08820
C1677       C  0.53608801  0.31291350  0.32897196     1.08760
C1678       C  0.53705369  0.22170670  0.17471722     1.08730
O1679       O  0.74605782  0.20943919  0.33188094    -0.80890
O1680       O  0.79324508  0.25620557  0.16741788    -0.80910
O1681       O  0.71038942  0.19067140  0.20732888    -0.80920
O1682       O  0.82055428  0.29947927  0.29947171    -0.80860
O1683       O  0.74718305  0.21075757  0.16641958    -0.80980
O1684       O  0.79589492  0.25996664  0.33370006    -0.80900
O1685       O  0.81441439  0.29328870  0.20737565    -0.80890
O1686       O  0.70611283  0.18398051  0.29981588    -0.80920
C1687       C  0.72461541  0.18662488  0.32824528     1.08800
C1688       C  0.81459621  0.27727783  0.17625304     1.08690
C1689       C  0.72570480  0.18983581  0.17547141     1.08830
C1690       C  0.81841925  0.28173440  0.32940965     1.08700
O1691       O  0.76521055  0.28720307  0.34977495    -0.80890
O1692       O  0.71738718  0.23883841  0.15549235    -0.80960
O1693       O  0.69512739  0.21896259  0.28026928    -0.80900
O1694       O  0.78771153  0.30888541  0.22802561    -0.80880
O1695       O  0.76711826  0.28769321  0.15484007    -0.80930
O1696       O  0.71720970  0.23815759  0.35071225    -0.80900
O1697       O  0.78557689  0.30978951  0.28029144    -0.80860
O1698       O  0.69592338  0.21714897  0.22777667    -0.80930
Co1699     Co  0.75559278  0.24921730  0.33124559     1.51530
Co1700     Co  0.75572031  0.24889771  0.16738743     1.51690
Co1701     Co  0.72609319  0.21632131  0.26428076     1.51570
Co1702     Co  0.78841470  0.27881722  0.26442568     1.51470
O1703       O  0.75138805  0.25336699  0.24670087    -1.42820
C1704       C  0.77778536  0.30932669  0.32625210     1.08730
C1705       C  0.69596518  0.22556130  0.18146052     1.08820
C1706       C  0.69518932  0.22562157  0.32687911     1.08760
C1707       C  0.78033454  0.30907225  0.18102324     1.08730
C1708       C  0.95002969  0.27983594  0.35164500     0.41710
N1709       N  0.91617508  0.27407458  0.39384071     0.00600
C1710       C  0.89016049  0.35333536  0.05382291    -0.07280
H1711       H  0.97925281  0.35512482  0.09742714     0.06090
C1712       C  0.92449985  0.25706644  0.13955387    -0.07630
Co1713     Co  0.91712621  0.32154711  0.43967582     0.74180
N1714       N  0.94986660  0.33846568  0.03723666    -0.26810
Co1715     Co  0.91475010  0.31827805  0.07843029     0.74070
C1716       C  0.94914110  0.27787167  0.15826386     0.41810
N1717       N  0.89634509  0.23526795  0.02687009     0.00210
N1718       N  0.92856934  0.29477253  0.11790777     0.00320
N1719       N  0.89179617  0.35482775  0.46568651    -0.47650
H1720       H  0.97083725  0.32487174  0.36595872     0.06080
N1721       N  0.95109355  0.33971448  0.48559360     0.00610
N1722       N  0.87727251  0.29638039  0.11677875     0.00350
C1723       C  0.83962980  0.28107351  0.15500927     0.41950
N1724       N  0.89690416  0.23636673  0.47586775    -0.26260
C1725       C  0.86621331  0.30987861  0.37158477    -0.07180
N1726       N  0.92611762  0.26184166  0.36733943    -0.47370
N1727       N  0.86194495  0.30377120  0.14122470    -0.47590
C1728       C  0.84238327  0.28545427  0.35531670     0.41720
N1729       N  0.90227084  0.34115650  0.48449750     0.00590
N1730       N  0.84778925  0.23746393  0.47554966    -0.26280
N1731       N  0.93155035  0.29974448  0.39661694    -0.26780
N1732       N  0.84748637  0.23690206  0.02655567     0.00230
H1733       H  0.81696562  0.22513603  0.41848638     0.06120
H1734       H  0.82891895  0.23870198  0.14132612     0.06160
N1735       N  0.90134097  0.33980014  0.03615181    -0.26830
N1736       N  0.91362589  0.26912604  0.11447035    -0.26440
N1737       N  0.86833151  0.27600489  0.39518777     0.00600
C1738       C  0.99077408  0.36260446  0.51098141     0.41990
C1739       C  0.91225773  0.22748015  0.45887652    -0.07690
N1740       N  0.86568908  0.27066602  0.11392977    -0.26440
H1741       H  0.91652522  0.23608903  0.14253016     0.06140
N1742       N  0.97545185  0.35406731  0.46822326    -0.47660
H1743       H  0.91616254  0.22516731  0.41892071     0.06130
C1744       C  0.80746250  0.22144563  0.00528086     0.41830
C1745       C  0.95386783  0.30548775  0.37039469    -0.07190
Co1746     Co  0.88182908  0.25514500  0.43444201     0.73820
N1747       N  0.91059260  0.22575685  0.04582978    -0.47380
C1748       C  0.88385347  0.36313085  0.00713217     0.42100
N1749       N  0.84550845  0.26557491  0.37090489    -0.47370
Co1750     Co  0.88041945  0.25226661  0.07077330     0.73890
C1751       C  0.84264769  0.25953522  0.13826204    -0.07700
C1752       C  0.97410031  0.35240049  0.05655751    -0.07260
N1753       N  0.88112390  0.30185732  0.39683854    -0.26790
N1754       N  0.95070334  0.30108728  0.14385951    -0.47550
H1755       H  0.88631043  0.35543209  0.09420424     0.06100
C1756       C  0.82332660  0.22798277  0.45858663    -0.07670
Cl1757     Cl  0.89878983  0.28720389  0.00583610    -0.50670
C1758       C  0.92137336  0.22051080  0.00508977     0.41860
H1759       H  0.87073444  0.33000767  0.36735028     0.06070
N1760       N  0.82384299  0.22766436  0.04571499    -0.47380
C1761       C  0.84035425  0.05483023  0.35179658     0.41710
N1762       N  0.86782472  0.08882711  0.39433697     0.00600
C1763       C  0.97374815  0.11558707  0.05442546    -0.07280
H1764       H  0.88487710  0.02451191  0.09301816     0.06090
C1765       C  0.84285666  0.07978539  0.13985125    -0.07630
Co1766     Co  0.91568727  0.08953516  0.43830402     0.74180
N1767       N  0.89934512  0.05525659  0.03496236    -0.26810
Co1768     Co  0.91396506  0.09053063  0.07767842     0.74070
C1769       C  0.83937275  0.05538203  0.15899054     0.41810
N1770       N  0.84865043  0.10749384  0.02691492     0.00210
N1771       N  0.87648653  0.07596907  0.11721807     0.00320
N1772       N  0.97477426  0.11514070  0.46627898    -0.47650
H1773       H  0.86619755  0.03562731  0.36316612     0.06080
N1774       N  0.89997502  0.05479219  0.48322546     0.00610
N1775       N  0.92887344  0.12806513  0.11750058     0.00350
C1776       C  0.94980591  0.16532214  0.15866225     0.41950
N1777       N  0.84893150  0.10751122  0.47593254    -0.26260
C1778       C  0.95342873  0.14202408  0.36845124    -0.07180
N1779       N  0.84524970  0.07817352  0.36908722    -0.47370
N1780       N  0.95103780  0.14353085  0.14379614    -0.47590
C1781       C  0.95045042  0.16449047  0.35062777     0.41900
N1782       N  0.95031076  0.10476911  0.48391450     0.00590
N1783       N  0.89917254  0.15672649  0.47640318    -0.26280
N1784       N  0.87916868  0.07439760  0.39539042    -0.26780
N1785       N  0.89841741  0.15716899  0.02734196     0.00230
H1786       H  0.91849229  0.18727772  0.41956056     0.06120
H1787       H  0.91784735  0.17526871  0.14297867     0.06160
N1788       N  0.94927069  0.10491480  0.03563622    -0.26830
N1789       N  0.86558838  0.09069983  0.11409013    -0.26440
N1790       N  0.91666618  0.13725765  0.39384088     0.00600
C1791       C  0.88178396  0.01419993  0.00585284     0.41990
C1792       C  0.82441803  0.09307678  0.45898932    -0.07690
N1793       N  0.91439346  0.13923150  0.11434287    -0.26440
H1794       H  0.82981521  0.08766167  0.14323860     0.06140
N1795       N  0.88954959  0.03056976  0.46444411    -0.47660
H1796       H  0.81794793  0.08993815  0.41897783     0.06130
C1797       C  0.92283852  0.19719575  0.00564591     0.41830
C1798       C  0.86304725  0.05205990  0.36868133    -0.07190
Co1799     Co  0.88278691  0.12296137  0.43467091     0.73820
N1800       N  0.82498641  0.09339076  0.04613671    -0.47380
C1801       C  0.99055689  0.12231784  0.00867170     0.42100
N1802       N  0.92709553  0.15952471  0.36758941    -0.47370
Co1803     Co  0.88143408  0.12397470  0.07085521     0.73890
C1804       C  0.92549118  0.16201994  0.13983313    -0.07700
C1805       C  0.88821237  0.03043740  0.05256648    -0.07260
N1806       N  0.93115594  0.12601291  0.39544474    -0.26790
N1807       N  0.86098085  0.05391849  0.14384058    -0.47550
H1808       H  0.97909537  0.11844941  0.09519359     0.06100
C1809       C  0.91464572  0.18101455  0.45953870    -0.07670
Cl1810     Cl  0.89869257  0.10652335  0.00539326    -0.50670
C1811       C  0.80860460  0.08382417  0.00563337     0.41860
H1812       H  0.96983764  0.13884772  0.36297817     0.06070
N1813       N  0.91236897  0.18099442  0.04639289    -0.47380
C1814       C  0.66778651  0.44863526  0.35637456     0.41710
N1815       N  0.64079243  0.41310031  0.39514140     0.00600
C1816       C  0.53593349  0.38482664  0.05682900    -0.07280
H1817       H  0.62520183  0.47545211  0.09527027     0.06090
C1818       C  0.66687664  0.42153827  0.13736860    -0.07630
Co1819     Co  0.59300423  0.41143991  0.44010706     0.74180
N1820       N  0.60962410  0.44487965  0.03699331    -0.26810
Co1821     Co  0.59527745  0.40990991  0.07893344     0.74070
C1822       C  0.67045857  0.44629793  0.15486877     0.41810
N1823       N  0.66047184  0.39294281  0.02570354     0.00210
N1824       N  0.63258013  0.42444444  0.11708192     0.00320
N1825       N  0.53470534  0.38537873  0.46854800    -0.47650
H1826       H  0.64057761  0.46601006  0.36902137     0.06080
N1827       N  0.60871134  0.44543111  0.48536153     0.00610
N1828       N  0.58028018  0.37253328  0.11735462     0.00350
C1829       C  0.55795539  0.33455464  0.15454923     0.41950
N1830       N  0.66011070  0.39332290  0.47465340    -0.26260
C1831       C  0.55445289  0.36023927  0.37238750    -0.07180
N1832       N  0.66379336  0.42516256  0.37130229    -0.47370
N1833       N  0.55758115  0.35695130  0.14176252    -0.47590
C1834       C  0.55595251  0.33705296  0.35521636     0.41720
N1835       N  0.55910026  0.39614763  0.48606958     0.00590
N1836       N  0.61020688  0.34412230  0.47461911    -0.26280
N1837       N  0.62882119  0.42689886  0.39726076    -0.26780
N1838       N  0.61074591  0.34339831  0.02563082     0.00230
H1839       H  0.59264729  0.31392820  0.41651785     0.06120
H1840       H  0.58957009  0.32400224  0.13904466     0.06160
N1841       N  0.56025698  0.39585816  0.03769812    -0.26830
N1842       N  0.64363072  0.40987901  0.11352929    -0.26440
N1843       N  0.59128965  0.36387838  0.39465354     0.00600
C1844       C  0.62779813  0.48559604  0.00818275     0.41990
C1845       C  0.68468957  0.40716705  0.45752898    -0.07690
N1846       N  0.59444074  0.36105997  0.11350472    -0.26440
H1847       H  0.68032330  0.41411981  0.13992384     0.06140
N1848       N  0.61958199  0.46956549  0.46660750    -0.47660
H1849       H  0.69097889  0.41047418  0.41736486     0.06130
C1850       C  0.58782622  0.30338928  0.00281094     0.41830
C1851       C  0.64437869  0.44990673  0.37266023    -0.07190
Co1852     Co  0.62596725  0.37826046  0.43392786     0.73820
N1853       N  0.68426033  0.40612709  0.04484533    -0.47380
C1854       C  0.51927278  0.37794931  0.01115186     0.42100
N1855       N  0.57942647  0.34111222  0.36995139    -0.47370
Co1856     Co  0.62760636  0.37648473  0.07006361     0.73890
C1857       C  0.58249747  0.33774694  0.13696190    -0.07700
C1858       C  0.62129522  0.46955561  0.05485923    -0.07260
N1859       N  0.57737547  0.37570009  0.39730865    -0.26790
N1860       N  0.64832295  0.44704880  0.14167304    -0.47550
H1861       H  0.53064698  0.38155715  0.09759911     0.06100
C1862       C  0.59594716  0.31978598  0.45686483    -0.07670
Cl1863     Cl  0.61018722  0.39428462  0.00577123    -0.50670
C1864       C  0.70058293  0.41578359  0.00427767     0.41860
H1865       H  0.53835114  0.36403328  0.36881265     0.06070
N1866       N  0.59768700  0.31935995  0.04404976    -0.47380
C1867       C  0.72472926  0.41606531  0.00694123     0.41710
N1868       N  0.74217606  0.39337746  0.48610291     0.00600
C1869       C  0.81248679  0.35745277  0.14021476    -0.07280
H1870       H  0.83467195  0.46655465  0.13981694     0.06090
C1871       C  0.85876703  0.46866889  0.45662111    -0.07630
Co1872     Co  0.76109025  0.37806655  0.07818385     0.74180
N1873       N  0.80753163  0.42672802  0.11406149    -0.26810
Co1874     Co  0.82770103  0.41039405  0.07213910     0.74070
C1875       C  0.86824618  0.48524977  0.50298864     0.41810
N1876       N  0.80211677  0.42323821  0.39482859     0.00210
N1877       N  0.84700285  0.44471862  0.02647189     0.00320
N1878       N  0.76870345  0.34042223  0.14278477    -0.47650
H1879       H  0.72862012  0.41062807  0.09396552     0.06080
N1880       N  0.78172688  0.41290075  0.11634114     0.00610
N1881       N  0.84616272  0.39441636  0.02715353     0.00350
C1882       C  0.86871528  0.37669547  0.00414491     0.41950
N1883       N  0.77640436  0.40971265  0.39901675    -0.26260
C1884       C  0.73202341  0.31923200  0.05479074    -0.07180
N1885       N  0.73160772  0.40650585  0.46655293    -0.47370
N1886       N  0.86023344  0.38435397  0.04573600    -0.47590
C1887       C  0.72540378  0.30335778  0.00813749     0.41720
N1888       N  0.78061261  0.36322123  0.11820912     0.00590
N1889       N  0.77485994  0.36025269  0.39870861    -0.26280
N1890       N  0.74266842  0.39366243  0.03710266    -0.26780
N1891       N  0.80043083  0.37080004  0.39447209     0.00230
H1892       H  0.74129209  0.32508847  0.36944637     0.06120
H1893       H  0.86113248  0.37947398  0.41704741     0.06160
N1894       N  0.80632650  0.37410490  0.11548440    -0.26830
N1895       N  0.84572357  0.44389045  0.47481411    -0.26440
N1896       N  0.74166817  0.34344683  0.48673009     0.00600
C1897       C  0.78995789  0.44903389  0.15238099     0.41990
C1898       C  0.76559835  0.42186066  0.37407077    -0.07690
N1899       N  0.84482215  0.39363178  0.47548344    -0.26440
H1900       H  0.86065766  0.47437978  0.41610554     0.06140
N1901       N  0.77075428  0.42523185  0.13859266    -0.47660
H1902       H  0.74487762  0.41520122  0.37119313     0.06130
C1903       C  0.78270903  0.33406097  0.35138078     0.41830
C1904       C  0.73193575  0.40752257  0.05387997    -0.07190
Co1905     Co  0.75814977  0.37642588  0.44247353     0.73820
N1906       N  0.80984882  0.44539507  0.36817270    -0.47380
C1907       C  0.78704433  0.33487658  0.15776578     0.42100
N1908       N  0.73202049  0.31972510  0.46759798    -0.47370
Co1909     Co  0.82423949  0.40824708  0.43350850     0.73890
C1910       C  0.85859429  0.38274455  0.45755643    -0.07700
C1911       C  0.81482542  0.45020501  0.13704976    -0.07260
N1912       N  0.74213260  0.34378312  0.03777355    -0.26790
N1913       N  0.86018590  0.46908586  0.04467756    -0.47550
H1914       H  0.83196279  0.36006318  0.14352010     0.06100
C1915       C  0.76232577  0.33770730  0.37245996    -0.07670
Cl1916     Cl  0.79318956  0.39342696  0.00650505    -0.50670
C1917       C  0.78752593  0.44560379  0.35456824     0.41860
H1918       H  0.72890352  0.31278725  0.09482886     0.06070
N1919       N  0.80623584  0.35531593  0.36604241    -0.47380
C1920       C  0.55690392  0.21422466  0.35565839     0.41710
N1921       N  0.59233219  0.22308563  0.39496155     0.00600
C1922       C  0.62184558  0.14580807  0.05370019    -0.07280
H1923       H  0.53094440  0.14372205  0.09527545     0.06090
C1924       C  0.58278485  0.23935830  0.13584677    -0.07630
Co1925     Co  0.59465986  0.17702082  0.43905757     0.74180
N1926       N  0.56091931  0.15878614  0.03593045    -0.26810
Co1927     Co  0.59616580  0.18017168  0.07767893     0.74070
C1928       C  0.55822832  0.21786991  0.15298436     0.41810
N1929       N  0.61151455  0.26282623  0.02573676     0.00210
N1930       N  0.58076043  0.20242595  0.11589799     0.00320
N1931       N  0.62058997  0.14449973  0.46548573    -0.47650
H1932       H  0.53995791  0.16957086  0.36775329     0.06080
N1933       N  0.55994757  0.15744531  0.48428549     0.00610
N1934       N  0.63351556  0.20367862  0.11720676     0.00350
C1935       C  0.67066830  0.22082356  0.15894860     0.41950
N1936       N  0.61113961  0.26174572  0.47479114    -0.26260
C1937       C  0.64758987  0.19290439  0.36987534    -0.07180
N1938       N  0.58020959  0.23382661  0.37077390    -0.47370
N1939       N  0.64923117  0.19750748  0.14394362    -0.47590
C1940       C  0.66990851  0.21860991  0.35248827     0.41720
N1941       N  0.61041499  0.15845593  0.48412758     0.00590
N1942       N  0.66107068  0.26252527  0.47522622    -0.26280
N1943       N  0.57879992  0.19723943  0.39681511    -0.26780
N1944       N  0.66128412  0.26300460  0.02627067     0.00230
H1945       H  0.69223113  0.27570205  0.41863836     0.06120
H1946       H  0.67970995  0.26248576  0.14282632     0.06160
N1947       N  0.61097631  0.15962102  0.03582243    -0.26830
N1948       N  0.59485190  0.22815756  0.11243969    -0.26440
N1949       N  0.64189519  0.22448453  0.39421152     0.00600
C1950       C  0.51956303  0.13595133  0.00877999     0.41990
C1951       C  0.59692031  0.27177246  0.45686847    -0.07690
N1952       N  0.64412298  0.22931132  0.11387244    -0.26440
H1953       H  0.58985983  0.26018748  0.13838380     0.06140
N1954       N  0.53544065  0.14403640  0.46650447    -0.47660
H1955       H  0.59381324  0.27447240  0.41648650     0.06130
C1956       C  0.70139524  0.27927970  0.00540969     0.41830
C1957       C  0.55584656  0.18959144  0.37188457    -0.07190
Co1958     Co  0.62692717  0.24366166  0.43414453     0.73820
N1959       N  0.59826199  0.27357183  0.04408027    -0.47380
C1960       C  0.62811658  0.13588610  0.00704726     0.42100
N1961       N  0.66440646  0.23673289  0.36885816    -0.47370
Co1962     Co  0.62822961  0.24645713  0.06993269     0.73890
C1963       C  0.66684336  0.24148478  0.13966109    -0.07700
C1964       C  0.53636898  0.14561911  0.05459872    -0.07260
N1965       N  0.63108639  0.19873549  0.39608149    -0.26790
N1966       N  0.55797761  0.19514044  0.14011827    -0.47550
H1967       H  0.62499602  0.14313032  0.09421062     0.06100
C1968       C  0.68565186  0.27258256  0.45856885    -0.07670
Cl1969     Cl  0.61134197  0.21142579  0.00524645    -0.50670
C1970       C  0.58834622  0.27954580  0.00273319     0.41860
H1971       H  0.64491338  0.17345605  0.36496649     0.06070
N1972       N  0.68493290  0.27269628  0.04572835    -0.47380
C1973       C  0.78500548  0.08449721  0.00840073     0.41710
N1974       N  0.76909562  0.10856036  0.48717285     0.00600
C1975       C  0.69541344  0.14052176  0.13815862    -0.07280
H1976       H  0.67908721  0.03354288  0.14381346     0.06090
C1977       C  0.65307517  0.02996508  0.45842909    -0.07630
Co1978     Co  0.74944988  0.12299311  0.07922727     0.74180
N1979       N  0.70476663  0.07341491  0.11647333    -0.26810
Co1980     Co  0.68336360  0.08816265  0.07331019     0.74070
C1981       C  0.64312159  0.01400779  0.00515085     0.41810
N1982       N  0.71062365  0.07621392  0.39448023     0.00210
N1983       N  0.66551829  0.05410047  0.02798073     0.00320
N1984       N  0.73947827  0.15980557  0.14078198    -0.47650
H1985       H  0.78187704  0.09056550  0.09505041     0.06080
N1986       N  0.73045820  0.08834894  0.11917473     0.00610
N1987       N  0.66387249  0.10266235  0.02742224     0.00350
C1988       C  0.64175351  0.12081066  0.00413859     0.41950
N1989       N  0.73616813  0.09144622  0.39867758    -0.26260
C1990       C  0.77667754  0.18166943  0.05470269    -0.07180
N1991       N  0.77857901  0.09441197  0.46792897    -0.47370
N1992       N  0.65018420  0.11317634  0.04578953    -0.47590
C1993       C  0.78320205  0.19751574  0.00793962     0.41720
N1994       N  0.72866986  0.13655500  0.11830420     0.00590
N1995       N  0.73390520  0.13899182  0.39882001    -0.26280
N1996       N  0.76868401  0.10839137  0.03821239    -0.26780
N1997       N  0.70822684  0.12655115  0.39463495     0.00230
H1998       H  0.76531355  0.17597721  0.37040518     0.06120
H1999       H  0.64927935  0.11780105  0.41714527     0.06160
N2000       N  0.70291400  0.12446981  0.11551433    -0.26830
N2001       N  0.66679184  0.05460988  0.47626716    -0.26440
N2002       N  0.76724556  0.15739017  0.48690139     0.00600
C2003       C  0.72396118  0.05332605  0.15807588     0.41990
C2004       C  0.74873722  0.08146395  0.37241833    -0.07690
N2005       N  0.66508156  0.10313581  0.47569447    -0.26440
H2006       H  0.65035640  0.02408929  0.41794376     0.06140
N2007       N  0.74236132  0.07737864  0.14344976    -0.47660
H2008       H  0.76977484  0.08998870  0.36939042     0.06130
C2009       C  0.72259911  0.16321147  0.35343939     0.41830
C2010       C  0.77872241  0.09392713  0.05508381    -0.07190
Co2011     Co  0.75225980  0.12447760  0.44277979     0.73820
N2012       N  0.70484176  0.05487254  0.36618812    -0.47380
C2013       C  0.72017844  0.16427220  0.15387865     0.42100
N2014       N  0.77660012  0.18104908  0.46754989    -0.47370
Co2015     Co  0.68674598  0.08954266  0.43374302     0.73890
C2016       C  0.65147259  0.11420164  0.45764244    -0.07700
C2017       C  0.69856717  0.05048925  0.14077032    -0.07260
N2018       N  0.76694978  0.15713365  0.03793314    -0.26790
N2019       N  0.65152186  0.03003154  0.04673516    -0.47550
H2020       H  0.67554401  0.13693629  0.14031569     0.06100
C2021       C  0.74460774  0.16177230  0.37328648    -0.07670
Cl2022     Cl  0.71731676  0.10588499  0.00720390    -0.50670
C2023       C  0.72833644  0.05722217  0.35137914     0.41860
H2024       H  0.78000306  0.18815869  0.09473075     0.06070
N2025       N  0.70032075  0.14065108  0.36744301    -0.47380
O2026       O  0.71434617  0.46928754  0.83459260    -0.80890
O2027       O  0.76289217  0.46833423  0.66613998    -0.80910
O2028       O  0.69596745  0.48375943  0.70758073    -0.80920
O2029       O  0.80394388  0.48276380  0.80042220    -0.80860
O2030       O  0.71687904  0.46762478  0.66765428    -0.80980
O2031       O  0.76417706  0.46854351  0.83307569    -0.80900
O2032       O  0.79957588  0.48483495  0.70748044    -0.80890
O2033       O  0.68998010  0.48435262  0.80014730    -0.80920
C2034       C  0.69192194  0.46868070  0.83026651     1.08800
C2035       C  0.78433062  0.46885849  0.67510317     1.08690
C2036       C  0.69560992  0.46740933  0.67654007     1.08830
C2037       C  0.78550767  0.46702932  0.82923653     1.08700
O2038       O  0.79313318  0.02650402  0.85047575    -0.80890
O2039       O  0.74319962  0.02548505  0.65497021    -0.80960
O2040       O  0.72516178  0.02970326  0.78042602    -0.80900
O2041       O  0.81429410  0.02610327  0.72775064    -0.80880
O2042       O  0.79273666  0.02631478  0.65562506    -0.80930
O2043       O  0.74539220  0.02747528  0.85000357    -0.80900
O2044       O  0.81517111  0.02886359  0.78032198    -0.80860
O2045       O  0.72309502  0.02658542  0.72841486    -0.80930
Co2046     Co  0.75474409  0.49889354  0.83168178     1.51530
Co2047     Co  0.75442984  0.99797580  0.66752405     1.51690
Co2048     Co  0.72198480  0.49560482  0.76483517     1.51570
Co2049     Co  0.78409221  0.99508919  0.76448997     1.51470
O2050       O  0.75887211  0.50686851  0.74688796    -1.42820
C2051       C  0.81511252  0.03597475  0.82656637     1.08730
C2052       C  0.73039778  0.03402419  0.68130957     1.08820
C2053       C  0.73306427  0.03720152  0.82633785     1.08760
C2054       C  0.81418338  0.03451983  0.68149041     1.08730
O2055       O  0.97800622  0.26043941  0.84998958    -0.80890
O2056       O  0.97888567  0.21193378  0.65469656    -0.80910
O2057       O  0.97774767  0.28136251  0.72747682    -0.80920
O2058       O  0.97638178  0.18975700  0.77939196    -0.80860
O2059       O  0.97866208  0.26080955  0.65457623    -0.80980
O2060       O  0.97821531  0.21179432  0.84944809    -0.80900
O2061       O  0.97893376  0.19058849  0.72711301    -0.80890
O2062       O  0.97510433  0.27962195  0.77939266    -0.80920
C2063       C  0.96836206  0.27280748  0.82602177     1.08800
C2064       C  0.97071040  0.19054238  0.68072725     1.08690
C2065       C  0.96992780  0.27346860  0.68075898     1.08830
C2066       C  0.96915236  0.18980157  0.82558346     1.08700
O2067       O  0.53602773  0.23991798  0.83370550    -0.80890
O2068       O  0.53658365  0.28815542  0.66679964    -0.80960
O2069       O  0.52036308  0.31481539  0.79893348    -0.80900
O2070       O  0.52103764  0.20583265  0.70628914    -0.80880
O2071       O  0.53672588  0.24275047  0.66597430    -0.80930
O2072       O  0.53572759  0.29055839  0.83305528    -0.80900
O2073       O  0.52178703  0.20069852  0.79827554    -0.80860
O2074       O  0.52027117  0.30892743  0.70647605    -0.80930
Co2075     Co  0.50603251  0.25016895  0.83107163     1.51530
Co2076     Co  0.50668017  0.25040744  0.66685364     1.51690
Co2077     Co  0.50908105  0.28286165  0.76343053     1.51570
Co2078     Co  0.50996216  0.22088079  0.76296582     1.51470
O2079       O  0.49792544  0.24595891  0.74620759    -1.42820
C2080       C  0.53696494  0.21823501  0.82910990     1.08730
C2081       C  0.53669515  0.30938644  0.67562859     1.08820
C2082       C  0.53608802  0.31291351  0.82897197     1.08760
C2083       C  0.53705370  0.22170670  0.67471723     1.08730
O2084       O  0.74605782  0.20943919  0.83188092    -0.80890
O2085       O  0.79324508  0.25620557  0.66741788    -0.80910
O2086       O  0.71038941  0.19067140  0.70732887    -0.80920
O2087       O  0.82055428  0.29947928  0.79947171    -0.80860
O2088       O  0.74718304  0.21075757  0.66641959    -0.80980
O2089       O  0.79589492  0.25996664  0.83370005    -0.80900
O2090       O  0.81441439  0.29328870  0.70737565    -0.80890
O2091       O  0.70611283  0.18398051  0.79981587    -0.80920
C2092       C  0.72461541  0.18662488  0.82824527     1.08800
C2093       C  0.81459621  0.27727783  0.67625304     1.08690
C2094       C  0.72570480  0.18983581  0.67547141     1.08830
C2095       C  0.81841925  0.28173441  0.82940964     1.08700
O2096       O  0.76521055  0.28720307  0.84977495    -0.80890
O2097       O  0.71738718  0.23883841  0.65549234    -0.80960
O2098       O  0.69512739  0.21896260  0.78026927    -0.80900
O2099       O  0.78771152  0.30888541  0.72802561    -0.80880
O2100       O  0.76711826  0.28769321  0.65484006    -0.80930
O2101       O  0.71720970  0.23815758  0.85071224    -0.80900
O2102       O  0.78557688  0.30978951  0.78029144    -0.80860
O2103       O  0.69592338  0.21714897  0.72777667    -0.80930
Co2104     Co  0.75559278  0.24921729  0.83124558     1.51530
Co2105     Co  0.75572031  0.24889771  0.66738743     1.51690
Co2106     Co  0.72609319  0.21632131  0.76428076     1.51570
Co2107     Co  0.78841470  0.27881722  0.76442568     1.51470
O2108       O  0.75138805  0.25336699  0.74670086    -1.42820
C2109       C  0.77778535  0.30932669  0.82625210     1.08730
C2110       C  0.69596518  0.22556130  0.68146052     1.08820
C2111       C  0.69518932  0.22562157  0.82687911     1.08760
C2112       C  0.78033454  0.30907225  0.68102323     1.08730
C2113       C  0.95002969  0.27983594  0.85164500     0.41710
N2114       N  0.91617509  0.27407458  0.89384070     0.00600
C2115       C  0.89016049  0.35333537  0.55382291    -0.07280
H2116       H  0.97925281  0.35512483  0.59742713     0.06090
C2117       C  0.92449985  0.25706644  0.63955388    -0.07630
Co2118     Co  0.91712621  0.32154712  0.93967582     0.74180
N2119       N  0.94986660  0.33846568  0.53723666    -0.26810
Co2120     Co  0.91475011  0.31827805  0.57843030     0.74070
C2121       C  0.94914111  0.27787168  0.65826387     0.41810
N2122       N  0.89634509  0.23526796  0.52687010     0.00210
N2123       N  0.92856935  0.29477254  0.61790777     0.00320
N2124       N  0.89179617  0.35482775  0.96568650    -0.47650
H2125       H  0.97083725  0.32487174  0.86595872     0.06080
N2126       N  0.95109355  0.33971448  0.98559360     0.00610
N2127       N  0.87727251  0.29638039  0.61677876     0.00350
C2128       C  0.83962980  0.28107351  0.65500928     0.41950
N2129       N  0.89690416  0.23636673  0.97586773    -0.26260
C2130       C  0.86621332  0.30987861  0.87158476    -0.07180
N2131       N  0.92611763  0.26184166  0.86733942    -0.47370
N2132       N  0.86194495  0.30377121  0.64122471    -0.47590
C2133       C  0.84238327  0.28545427  0.85531669     0.41720
N2134       N  0.90227084  0.34115650  0.98449750     0.00590
N2135       N  0.84778925  0.23746393  0.97554964    -0.26280
N2136       N  0.93155035  0.29974448  0.89661693    -0.26780
N2137       N  0.84748637  0.23690206  0.52655568     0.00230
H2138       H  0.81696562  0.22513604  0.91848636     0.06120
H2139       H  0.82891895  0.23870198  0.64132614     0.06160
N2140       N  0.90134097  0.33980014  0.53615182    -0.26830
N2141       N  0.91362590  0.26912605  0.61447036    -0.26440
N2142       N  0.86833151  0.27600490  0.89518775     0.00600
C2143       C  0.99077408  0.36260446  0.01098142     0.41990
C2144       C  0.91225773  0.22748015  0.95887650    -0.07690
N2145       N  0.86568908  0.27066602  0.61392978    -0.26440
H2146       H  0.91652523  0.23608903  0.64253017     0.06140
N2147       N  0.97545185  0.35406732  0.96822327    -0.47660
H2148       H  0.91616254  0.22516731  0.91892070     0.06130
C2149       C  0.80746250  0.22144562  0.50528088     0.41830
C2150       C  0.95386783  0.30548775  0.87039468    -0.07190
Co2151     Co  0.88182908  0.25514500  0.93444200     0.73820
N2152       N  0.91059260  0.22575686  0.54582979    -0.47380
C2153       C  0.88385347  0.36313085  0.50713218     0.42100
N2154       N  0.84550845  0.26557492  0.87090488    -0.47370
Co2155     Co  0.88041945  0.25226661  0.57077332     0.73890
C2156       C  0.84264769  0.25953523  0.63826205    -0.07700
C2157       C  0.97410031  0.35240049  0.55655750    -0.07260
N2158       N  0.88112390  0.30185732  0.89683853    -0.26790
N2159       N  0.95070335  0.30108729  0.64385952    -0.47550
H2160       H  0.88631043  0.35543209  0.59420425     0.06100
C2161       C  0.82332660  0.22798277  0.95858661    -0.07670
Cl2162     Cl  0.89878983  0.28720389  0.50583611    -0.50670
C2163       C  0.92137336  0.22051081  0.50508978     0.41860
H2164       H  0.87073444  0.33000767  0.86735027     0.06070
N2165       N  0.82384299  0.22766436  0.54571501    -0.47380
C2166       C  0.84035425  0.05483023  0.85179657     0.41710
N2167       N  0.86782472  0.08882711  0.89433695     0.00600
C2168       C  0.97374815  0.11558707  0.55442547    -0.07280
H2169       H  0.88487710  0.02451192  0.59301818     0.06090
C2170       C  0.84285666  0.07978540  0.63985126    -0.07630
Co2171     Co  0.91568728  0.08953516  0.93830400     0.74180
N2172       N  0.89934512  0.05525659  0.53496238    -0.26810
Co2173     Co  0.91396506  0.09053064  0.57767844     0.74070
C2174       C  0.83937275  0.05538203  0.65899055     0.41810
N2175       N  0.84865043  0.10749384  0.52691494     0.00210
N2176       N  0.87648653  0.07596907  0.61721809     0.00320
N2177       N  0.97477426  0.11514070  0.96627897    -0.47650
H2178       H  0.86619755  0.03562730  0.86316611     0.06080
N2179       N  0.89997502  0.05479218  0.98322544     0.00610
N2180       N  0.92887345  0.12806513  0.61750060     0.00350
C2181       C  0.94980592  0.16532214  0.65866225     0.41950
N2182       N  0.84893150  0.10751122  0.97593252    -0.26260
C2183       C  0.95342874  0.14202408  0.86845123    -0.07180
N2184       N  0.84524970  0.07817352  0.86908720    -0.47370
N2185       N  0.95103781  0.14353086  0.64379615    -0.47590
C2186       C  0.95045042  0.16449048  0.85062777     0.41900
N2187       N  0.95031077  0.10476911  0.98391448     0.00590
N2188       N  0.89917254  0.15672649  0.97640316    -0.26280
N2189       N  0.87916868  0.07439760  0.89539040    -0.26780
N2190       N  0.89841741  0.15716899  0.52734197     0.00230
H2191       H  0.91849228  0.18727772  0.91956055     0.06120
H2192       H  0.91784735  0.17526872  0.64297869     0.06160
N2193       N  0.94927069  0.10491480  0.53563623    -0.26830
N2194       N  0.86558838  0.09069984  0.61409015    -0.26440
N2195       N  0.91666618  0.13725766  0.89384086     0.00600
C2196       C  0.88178396  0.01419993  0.50585286     0.41990
C2197       C  0.82441803  0.09307678  0.95898930    -0.07690
N2198       N  0.91439346  0.13923150  0.61434288    -0.26440
H2199       H  0.82981521  0.08766167  0.64323862     0.06140
N2200       N  0.88954959  0.03056976  0.96444409    -0.47660
H2201       H  0.81794793  0.08993815  0.91897781     0.06130
C2202       C  0.92283852  0.19719576  0.50564593     0.41830
C2203       C  0.86304725  0.05205990  0.86868132    -0.07190
Co2204     Co  0.88278691  0.12296137  0.93467089     0.73820
N2205       N  0.82498641  0.09339077  0.54613673    -0.47380
C2206       C  0.99055689  0.12231784  0.50867171     0.42100
N2207       N  0.92709553  0.15952471  0.86758940    -0.47370
Co2208     Co  0.88143408  0.12397470  0.57085523     0.73890
C2209       C  0.92549118  0.16201994  0.63983314    -0.07700
C2210       C  0.88821237  0.03043740  0.55256650    -0.07260
N2211       N  0.93115594  0.12601291  0.89544473    -0.26790
N2212       N  0.86098085  0.05391849  0.64384059    -0.47550
H2213       H  0.97909537  0.11844941  0.59519360     0.06100
C2214       C  0.91464571  0.18101455  0.95953868    -0.07670
Cl2215     Cl  0.89869257  0.10652335  0.50539328    -0.50670
C2216       C  0.80860460  0.08382417  0.50563339     0.41860
H2217       H  0.96983764  0.13884773  0.86297816     0.06070
N2218       N  0.91236897  0.18099442  0.54639291    -0.47380
C2219       C  0.66778651  0.44863526  0.85637458     0.41710
N2220       N  0.64079243  0.41310031  0.89514142     0.00600
C2221       C  0.53593349  0.38482664  0.55682899    -0.07280
H2222       H  0.62520182  0.47545211  0.59527025     0.06090
C2223       C  0.66687664  0.42153827  0.63736858    -0.07630
Co2224     Co  0.59300423  0.41143991  0.94010708     0.74180
N2225       N  0.60962409  0.44487965  0.53699329    -0.26810
Co2226     Co  0.59527745  0.40990992  0.57893342     0.74070
C2227       C  0.67045857  0.44629794  0.65486876     0.41810
N2228       N  0.66047184  0.39294282  0.52570352     0.00210
N2229       N  0.63258013  0.42444444  0.61708189     0.00320
N2230       N  0.53470534  0.38537873  0.96854802    -0.47650
H2231       H  0.64057761  0.46601006  0.86902138     0.06080
N2232       N  0.60871134  0.44543111  0.98536155     0.00610
N2233       N  0.58028019  0.37253328  0.61735461     0.00350
C2234       C  0.55795539  0.33455465  0.65454922     0.41950
N2235       N  0.66011069  0.39332290  0.97465342    -0.26260
C2236       C  0.55445289  0.36023928  0.87238752    -0.07180
N2237       N  0.66379336  0.42516256  0.87130231    -0.47370
N2238       N  0.55758116  0.35695131  0.64176251    -0.47590
C2239       C  0.55595251  0.33705296  0.85521638     0.41720
N2240       N  0.55910026  0.39614763  0.98606960     0.00590
N2241       N  0.61020688  0.34412230  0.97461913    -0.26280
N2242       N  0.62882119  0.42689886  0.89726078    -0.26780
N2243       N  0.61074592  0.34339831  0.52563080     0.00230
H2244       H  0.59264728  0.31392820  0.91651786     0.06120
H2245       H  0.58957009  0.32400225  0.63904465     0.06160
N2246       N  0.56025698  0.39585816  0.53769810    -0.26830
N2247       N  0.64363072  0.40987902  0.61352927    -0.26440
N2248       N  0.59128965  0.36387838  0.89465356     0.00600
C2249       C  0.62779811  0.48559604  0.50818272     0.41990
C2250       C  0.68468957  0.40716705  0.95752900    -0.07690
N2251       N  0.59444074  0.36105997  0.61350470    -0.26440
H2252       H  0.68032330  0.41411982  0.63992381     0.06140
N2253       N  0.61958200  0.46956549  0.96660752    -0.47660
H2254       H  0.69097889  0.41047417  0.91736488     0.06130
C2255       C  0.58782622  0.30338928  0.50281093     0.41830
C2256       C  0.64437869  0.44990673  0.87266025    -0.07190
Co2257     Co  0.62596725  0.37826046  0.93392788     0.73820
N2258       N  0.68426034  0.40612709  0.54484531    -0.47380
C2259       C  0.51927278  0.37794931  0.51115185     0.42100
N2260       N  0.57942647  0.34111222  0.86995141    -0.47370
Co2261     Co  0.62760636  0.37648473  0.57006359     0.73890
C2262       C  0.58249748  0.33774694  0.63696189    -0.07700
C2263       C  0.62129521  0.46955561  0.55485920    -0.07260
N2264       N  0.57737547  0.37570010  0.89730867    -0.26790
N2265       N  0.64832295  0.44704881  0.64167302    -0.47550
H2266       H  0.53064698  0.38155715  0.59759909     0.06100
C2267       C  0.59594716  0.31978598  0.95686484    -0.07670
Cl2268     Cl  0.61018722  0.39428462  0.50577121    -0.50670
C2269       C  0.70058293  0.41578360  0.50427764     0.41860
H2270       H  0.53835115  0.36403329  0.86881267     0.06070
N2271       N  0.59768700  0.31935995  0.54404975    -0.47380
C2272       C  0.72472926  0.41606532  0.50694122     0.41710
N2273       N  0.74217606  0.39337746  0.98610292     0.00600
C2274       C  0.81248678  0.35745277  0.64021476    -0.07280
H2275       H  0.83467195  0.46655464  0.63981694     0.06090
C2276       C  0.85876703  0.46866888  0.95662110    -0.07630
Co2277     Co  0.76109025  0.37806655  0.57818384     0.74180
N2278       N  0.80753162  0.42672802  0.61406149    -0.26810
Co2279     Co  0.82770102  0.41039405  0.57213910     0.74070
C2280       C  0.86824619  0.48524977  0.00298863     0.41810
N2281       N  0.80211677  0.42323820  0.89482859     0.00210
N2282       N  0.84700285  0.44471862  0.52647190     0.00320
N2283       N  0.76870344  0.34042222  0.64278476    -0.47650
H2284       H  0.72862012  0.41062807  0.59396550     0.06080
N2285       N  0.78172688  0.41290075  0.61634114     0.00610
N2286       N  0.84616271  0.39441636  0.52715353     0.00350
C2287       C  0.86871528  0.37669547  0.50414491     0.41950
N2288       N  0.77640435  0.40971264  0.89901676    -0.26260
C2289       C  0.73202341  0.31923200  0.55479072    -0.07180
N2290       N  0.73160772  0.40650585  0.96655295    -0.47370
N2291       N  0.86023343  0.38435397  0.54573601    -0.47590
C2292       C  0.72540378  0.30335778  0.50813747     0.41720
N2293       N  0.78061261  0.36322123  0.61820911     0.00590
N2294       N  0.77485993  0.36025268  0.89870861    -0.26280
N2295       N  0.74266842  0.39366243  0.53710265    -0.26780
N2296       N  0.80043082  0.37080004  0.89447210     0.00230
H2297       H  0.74129209  0.32508846  0.86944638     0.06120
H2298       H  0.86113248  0.37947398  0.91704741     0.06160
N2299       N  0.80632650  0.37410489  0.61548440    -0.26830
N2300       N  0.84572356  0.44389045  0.97481411    -0.26440
N2301       N  0.74166817  0.34344683  0.98673010     0.00600
C2302       C  0.78995788  0.44903388  0.65238099     0.41990
C2303       C  0.76559834  0.42186066  0.87407078    -0.07690
N2304       N  0.84482215  0.39363178  0.97548344    -0.26440
H2305       H  0.86065766  0.47437978  0.91610553     0.06140
N2306       N  0.77075427  0.42523185  0.63859265    -0.47660
H2307       H  0.74487761  0.41520121  0.87119314     0.06130
C2308       C  0.78270903  0.33406097  0.85138078     0.41830
C2309       C  0.73193574  0.40752258  0.55387996    -0.07190
Co2310     Co  0.75814977  0.37642587  0.94247354     0.73820
N2311       N  0.80984881  0.44539506  0.86817270    -0.47380
C2312       C  0.78704433  0.33487657  0.65776577     0.42100
N2313       N  0.73202049  0.31972510  0.96759799    -0.47370
Co2314     Co  0.82423949  0.40824708  0.93350850     0.73890
C2315       C  0.85859429  0.38274455  0.95755642    -0.07700
C2316       C  0.81482541  0.45020501  0.63704976    -0.07260
N2317       N  0.74213260  0.34378312  0.53777354    -0.26790
N2318       N  0.86018590  0.46908586  0.54467757    -0.47550
H2319       H  0.83196279  0.36006317  0.64352010     0.06100
C2320       C  0.76232577  0.33770730  0.87245997    -0.07670
Cl2321     Cl  0.79318956  0.39342696  0.50650505    -0.50670
C2322       C  0.78752593  0.44560379  0.85456825     0.41860
H2323       H  0.72890351  0.31278725  0.59482884     0.06070
N2324       N  0.80623584  0.35531592  0.86604241    -0.47380
C2325       C  0.55690392  0.21422466  0.85565839     0.41710
N2326       N  0.59233219  0.22308563  0.89496155     0.00600
C2327       C  0.62184558  0.14580807  0.55370019    -0.07280
H2328       H  0.53094440  0.14372205  0.59527546     0.06090
C2329       C  0.58278485  0.23935831  0.63584677    -0.07630
Co2330     Co  0.59465986  0.17702082  0.93905757     0.74180
N2331       N  0.56091931  0.15878614  0.53593045    -0.26810
Co2332     Co  0.59616580  0.18017169  0.57767893     0.74070
C2333       C  0.55822833  0.21786992  0.65298437     0.41810
N2334       N  0.61151455  0.26282624  0.52573675     0.00210
N2335       N  0.58076044  0.20242595  0.61589799     0.00320
N2336       N  0.62058997  0.14449973  0.96548573    -0.47650
H2337       H  0.53995791  0.16957086  0.86775329     0.06080
N2338       N  0.55994757  0.15744531  0.98428549     0.00610
N2339       N  0.63351556  0.20367862  0.61720675     0.00350
C2340       C  0.67066830  0.22082357  0.65894859     0.41950
N2341       N  0.61113961  0.26174572  0.97479115    -0.26260
C2342       C  0.64758988  0.19290439  0.86987534    -0.07180
N2343       N  0.58020960  0.23382661  0.87077391    -0.47370
N2344       N  0.64923117  0.19750749  0.64394362    -0.47590
C2345       C  0.66990851  0.21860991  0.85248827     0.41720
N2346       N  0.61041499  0.15845593  0.98412758     0.00590
N2347       N  0.66107068  0.26252527  0.97522623    -0.26280
N2348       N  0.57879992  0.19723944  0.89681511    -0.26780
N2349       N  0.66128412  0.26300460  0.52627065     0.00230
H2350       H  0.69223113  0.27570205  0.91863837     0.06120
H2351       H  0.67970995  0.26248576  0.64282631     0.06160
N2352       N  0.61097631  0.15962102  0.53582243    -0.26830
N2353       N  0.59485191  0.22815757  0.61243969    -0.26440
N2354       N  0.64189519  0.22448454  0.89421153     0.00600
C2355       C  0.51956303  0.13595133  0.50878000     0.41990
C2356       C  0.59692031  0.27177246  0.95686847    -0.07690
N2357       N  0.64412298  0.22931132  0.61387243    -0.26440
H2358       H  0.58985984  0.26018749  0.63838380     0.06140
N2359       N  0.53544066  0.14403640  0.96650446    -0.47660
H2360       H  0.59381325  0.27447241  0.91648650     0.06130
C2361       C  0.70139524  0.27927970  0.50540968     0.41830
C2362       C  0.55584657  0.18959145  0.87188458    -0.07190
Co2363     Co  0.62692717  0.24366166  0.93414453     0.73820
N2364       N  0.59826199  0.27357183  0.54408026    -0.47380
C2365       C  0.62811658  0.13588610  0.50704726     0.42100
N2366       N  0.66440647  0.23673289  0.86885816    -0.47370
Co2367     Co  0.62822961  0.24645714  0.56993268     0.73890
C2368       C  0.66684336  0.24148479  0.63966108    -0.07700
C2369       C  0.53636898  0.14561911  0.55459873    -0.07260
N2370       N  0.63108639  0.19873550  0.89608149    -0.26790
N2371       N  0.55797761  0.19514044  0.64011828    -0.47550
H2372       H  0.62499602  0.14313032  0.59421062     0.06100
C2373       C  0.68565186  0.27258256  0.95856887    -0.07670
Cl2374     Cl  0.61134197  0.21142580  0.50524645    -0.50670
C2375       C  0.58834622  0.27954580  0.50273318     0.41860
H2376       H  0.64491338  0.17345605  0.86496648     0.06070
N2377       N  0.68493290  0.27269628  0.54572833    -0.47380
C2378       C  0.78500548  0.08449721  0.50840075     0.41710
N2379       N  0.76909563  0.10856037  0.98717283     0.00600
C2380       C  0.69541343  0.14052176  0.63815862    -0.07280
H2381       H  0.67908721  0.03354287  0.64381346     0.06090
C2382       C  0.65307518  0.02996508  0.95842910    -0.07630
Co2383     Co  0.74944987  0.12299310  0.57922728     0.74180
N2384       N  0.70476662  0.07341490  0.61647333    -0.26810
Co2385     Co  0.68336359  0.08816264  0.57331019     0.74070
C2386       C  0.64312158  0.01400779  0.50515084     0.41810
N2387       N  0.71062365  0.07621392  0.89448023     0.00210
N2388       N  0.66551828  0.05410046  0.52798073     0.00320
N2389       N  0.73947826  0.15980556  0.64078198    -0.47650
H2390       H  0.78187703  0.09056550  0.59505043     0.06080
N2391       N  0.73045819  0.08834894  0.61917473     0.00610
N2392       N  0.66387249  0.10266235  0.52742224     0.00350
C2393       C  0.64175351  0.12081066  0.50413859     0.41950
N2394       N  0.73616813  0.09144622  0.89867757    -0.26260
C2395       C  0.77667754  0.18166942  0.55470271    -0.07180
N2396       N  0.77857901  0.09441197  0.96792896    -0.47370
N2397       N  0.65018419  0.11317634  0.54578953    -0.47590
C2398       C  0.78320206  0.19751574  0.50793964     0.41720
N2399       N  0.72866985  0.13655500  0.61830420     0.00590
N2400       N  0.73390520  0.13899182  0.89881999    -0.26280
N2401       N  0.76868400  0.10839137  0.53821241    -0.26780
N2402       N  0.70822685  0.12655115  0.89463494     0.00230
H2403       H  0.76531355  0.17597721  0.87040516     0.06120
H2404       H  0.64927936  0.11780105  0.91714527     0.06160
N2405       N  0.70291400  0.12446980  0.61551434    -0.26830
N2406       N  0.66679184  0.05460988  0.97626716    -0.26440
N2407       N  0.76724557  0.15739017  0.98690137     0.00600
C2408       C  0.72396118  0.05332605  0.65807588     0.41990
C2409       C  0.74873722  0.08146395  0.87241832    -0.07690
N2410       N  0.66508156  0.10313581  0.97569447    -0.26440
H2411       H  0.65035641  0.02408929  0.91794377     0.06140
N2412       N  0.74236131  0.07737864  0.64344977    -0.47660
H2413       H  0.76977484  0.08998870  0.86939041     0.06130
C2414       C  0.72259911  0.16321146  0.85343938     0.41830
C2415       C  0.77872241  0.09392712  0.55508383    -0.07190
Co2416     Co  0.75225980  0.12447760  0.94277978     0.73820
N2417       N  0.70484176  0.05487254  0.86618811    -0.47380
C2418       C  0.72017844  0.16427220  0.65387866     0.42100
N2419       N  0.77660012  0.18104908  0.96754987    -0.47370
Co2420     Co  0.68674598  0.08954266  0.93374302     0.73890
C2421       C  0.65147259  0.11420164  0.95764244    -0.07700
C2422       C  0.69856716  0.05048924  0.64077032    -0.07260
N2423       N  0.76694978  0.15713364  0.53793316    -0.26790
N2424       N  0.65152185  0.03003154  0.54673515    -0.47550
H2425       H  0.67554400  0.13693629  0.64031569     0.06100
C2426       C  0.74460774  0.16177230  0.87328646    -0.07670
Cl2427     Cl  0.71731675  0.10588498  0.50720391    -0.50670
C2428       C  0.72833644  0.05722217  0.85137913     0.41860
H2429       H  0.78000306  0.18815868  0.59473077     0.06070
N2430       N  0.70032075  0.14065108  0.86744301    -0.47380
O2431       O  0.71434617  0.96928754  0.33459259    -0.80890
O2432       O  0.76289218  0.96833423  0.16613998    -0.80910
O2433       O  0.69596745  0.98375944  0.20758073    -0.80920
O2434       O  0.80394389  0.98276380  0.30042220    -0.80860
O2435       O  0.71687904  0.96762477  0.16765429    -0.80980
O2436       O  0.76417706  0.96854351  0.33307569    -0.80900
O2437       O  0.79957588  0.98483495  0.20748044    -0.80890
O2438       O  0.68998011  0.98435263  0.30014730    -0.80920
C2439       C  0.69192194  0.96868070  0.33026650     1.08800
C2440       C  0.78433062  0.96885849  0.17510317     1.08690
C2441       C  0.69560992  0.96740933  0.17654008     1.08830
C2442       C  0.78550767  0.96702932  0.32923653     1.08700
O2443       O  0.79313318  0.52650403  0.35047575    -0.80890
O2444       O  0.74319962  0.52548505  0.15497021    -0.80960
O2445       O  0.72516179  0.52970326  0.28042601    -0.80900
O2446       O  0.81429410  0.52610328  0.22775064    -0.80880
O2447       O  0.79273666  0.52631478  0.15562506    -0.80930
O2448       O  0.74539220  0.52747528  0.35000357    -0.80900
O2449       O  0.81517111  0.52886360  0.28032198    -0.80860
O2450       O  0.72309502  0.52658543  0.22841486    -0.80930
Co2451     Co  0.75474409  0.99889354  0.33168178     1.51530
Co2452     Co  0.75442984  0.49797580  0.16752406     1.51690
Co2453     Co  0.72198480  0.99560483  0.26483517     1.51570
Co2454     Co  0.78409221  0.49508919  0.26448997     1.51470
O2455       O  0.75887212  0.00686851  0.24688796    -1.42820
C2456       C  0.81511252  0.53597475  0.32656637     1.08730
C2457       C  0.73039779  0.53402420  0.18130957     1.08820
C2458       C  0.73306427  0.53720152  0.32633785     1.08760
C2459       C  0.81418338  0.53451983  0.18149041     1.08730
O2460       O  0.97800622  0.76043941  0.34998958    -0.80890
O2461       O  0.97888567  0.71193377  0.15469656    -0.80910
O2462       O  0.97774767  0.78136251  0.22747681    -0.80920
O2463       O  0.97638177  0.68975699  0.27939196    -0.80860
O2464       O  0.97866208  0.76080955  0.15457622    -0.80980
O2465       O  0.97821531  0.71179432  0.34944808    -0.80900
O2466       O  0.97893375  0.69058849  0.22711301    -0.80890
O2467       O  0.97510432  0.77962195  0.27939266    -0.80920
C2468       C  0.96836206  0.77280748  0.32602176     1.08800
C2469       C  0.97071040  0.69054238  0.18072724     1.08690
C2470       C  0.96992779  0.77346860  0.18075898     1.08830
C2471       C  0.96915236  0.68980156  0.32558346     1.08700
O2472       O  0.53602773  0.73991798  0.33370549    -0.80890
O2473       O  0.53658365  0.78815542  0.16679963    -0.80960
O2474       O  0.52036308  0.81481539  0.29893348    -0.80900
O2475       O  0.52103763  0.70583265  0.20628914    -0.80880
O2476       O  0.53672588  0.74275046  0.16597429    -0.80930
O2477       O  0.53572759  0.79055839  0.33305527    -0.80900
O2478       O  0.52178703  0.70069852  0.29827554    -0.80860
O2479       O  0.52027116  0.80892743  0.20647605    -0.80930
Co2480     Co  0.50603251  0.75016895  0.33107163     1.51530
Co2481     Co  0.50668017  0.75040744  0.16685364     1.51690
Co2482     Co  0.50908104  0.78286165  0.26343053     1.51570
Co2483     Co  0.50996216  0.72088079  0.26296581     1.51470
O2484       O  0.49792543  0.74595890  0.24620758    -1.42820
C2485       C  0.53696494  0.71823501  0.32910989     1.08730
C2486       C  0.53669514  0.80938644  0.17562858     1.08820
C2487       C  0.53608802  0.81291351  0.32897195     1.08760
C2488       C  0.53705370  0.72170670  0.17471722     1.08730
O2489       O  0.74605782  0.70943919  0.33188093    -0.80890
O2490       O  0.79324508  0.75620557  0.16741787    -0.80910
O2491       O  0.71038942  0.69067140  0.20732887    -0.80920
O2492       O  0.82055428  0.79947927  0.29947170    -0.80860
O2493       O  0.74718305  0.71075757  0.16641958    -0.80980
O2494       O  0.79589492  0.75996664  0.33370006    -0.80900
O2495       O  0.81441440  0.79328870  0.20737564    -0.80890
O2496       O  0.70611284  0.68398051  0.29981587    -0.80920
C2497       C  0.72461541  0.68662487  0.32824527     1.08800
C2498       C  0.81459621  0.77727783  0.17625303     1.08690
C2499       C  0.72570480  0.68983581  0.17547140     1.08830
C2500       C  0.81841925  0.78173440  0.32940965     1.08700
O2501       O  0.76521056  0.78720307  0.34977495    -0.80890
O2502       O  0.71738718  0.73883842  0.15549235    -0.80960
O2503       O  0.69512740  0.71896259  0.28026928    -0.80900
O2504       O  0.78771154  0.80888541  0.22802561    -0.80880
O2505       O  0.76711826  0.78769321  0.15484007    -0.80930
O2506       O  0.71720970  0.73815759  0.35071225    -0.80900
O2507       O  0.78557689  0.80978951  0.28029144    -0.80860
O2508       O  0.69592339  0.71714897  0.22777668    -0.80930
Co2509     Co  0.75559278  0.74921729  0.33124559     1.51530
Co2510     Co  0.75572031  0.74889771  0.16738742     1.51690
Co2511     Co  0.72609319  0.71632131  0.26428076     1.51570
Co2512     Co  0.78841471  0.77881722  0.26442567     1.51470
O2513       O  0.75138806  0.75336699  0.24670087    -1.42820
C2514       C  0.77778536  0.80932669  0.32625210     1.08730
C2515       C  0.69596518  0.72556130  0.18146053     1.08820
C2516       C  0.69518932  0.72562157  0.32687911     1.08760
C2517       C  0.78033454  0.80907225  0.18102324     1.08730
C2518       C  0.95002969  0.77983594  0.35164500     0.41710
N2519       N  0.91617509  0.77407458  0.39384071     0.00600
C2520       C  0.89016049  0.85333537  0.05382291    -0.07280
H2521       H  0.97925281  0.85512483  0.09742714     0.06090
C2522       C  0.92449985  0.75706644  0.13955387    -0.07630
Co2523     Co  0.91712621  0.82154711  0.43967583     0.74180
N2524       N  0.94986661  0.83846568  0.03723666    -0.26810
Co2525     Co  0.91475011  0.81827805  0.07843029     0.74070
C2526       C  0.94914111  0.77787168  0.15826386     0.41810
N2527       N  0.89634509  0.73526796  0.02687009     0.00210
N2528       N  0.92856935  0.79477254  0.11790777     0.00320
N2529       N  0.89179618  0.85482775  0.46568651    -0.47650
H2530       H  0.97083725  0.82487174  0.36595871     0.06080
N2531       N  0.95109355  0.83971448  0.48559361     0.00610
N2532       N  0.87727251  0.79638039  0.11677875     0.00350
C2533       C  0.83962980  0.78107351  0.15500926     0.41950
N2534       N  0.89690417  0.73636674  0.47586775    -0.26260
C2535       C  0.86621332  0.80987861  0.37158477    -0.07180
N2536       N  0.92611763  0.76184166  0.36733942    -0.47370
N2537       N  0.86194495  0.80377120  0.14122469    -0.47590
C2538       C  0.84238327  0.78545426  0.35531671     0.41720
N2539       N  0.90227084  0.84115650  0.48449750     0.00590
N2540       N  0.84778926  0.73746392  0.47554966    -0.26280
N2541       N  0.93155036  0.79974448  0.39661694    -0.26780
N2542       N  0.84748637  0.73690206  0.02655567     0.00230
H2543       H  0.81696562  0.72513603  0.41848638     0.06120
H2544       H  0.82891895  0.73870198  0.14132612     0.06160
N2545       N  0.90134097  0.83980014  0.03615181    -0.26830
N2546       N  0.91362590  0.76912604  0.11447036    -0.26440
N2547       N  0.86833151  0.77600489  0.39518777     0.00600
C2548       C  0.99077409  0.86260446  0.51098141     0.41990
C2549       C  0.91225775  0.72748016  0.45887652    -0.07690
N2550       N  0.86568908  0.77066602  0.11392977    -0.26440
H2551       H  0.91652523  0.73608903  0.14253017     0.06140
N2552       N  0.97545185  0.85406732  0.46822326    -0.47660
H2553       H  0.91616256  0.72516732  0.41892072     0.06130
C2554       C  0.80746251  0.72144562  0.00528086     0.41830
C2555       C  0.95386783  0.80548775  0.37039469    -0.07190
Co2556     Co  0.88182909  0.75514500  0.43444201     0.73820
N2557       N  0.91059261  0.72575686  0.04582979    -0.47380
C2558       C  0.88385347  0.86313085  0.00713217     0.42100
N2559       N  0.84550845  0.76557491  0.37090490    -0.47370
Co2560     Co  0.88041945  0.75226661  0.07077330     0.73890
C2561       C  0.84264769  0.75953522  0.13826203    -0.07700
C2562       C  0.97410031  0.85240049  0.05655751    -0.07260
N2563       N  0.88112390  0.80185731  0.39683854    -0.26790
N2564       N  0.95070335  0.80108729  0.14385951    -0.47550
H2565       H  0.88631044  0.85543209  0.09420424     0.06100
C2566       C  0.82332661  0.72798276  0.45858663    -0.07670
Cl2567     Cl  0.89878983  0.78720389  0.00583610    -0.50670
C2568       C  0.92137337  0.72051081  0.00508977     0.41860
H2569       H  0.87073444  0.83000767  0.36735028     0.06070
N2570       N  0.82384299  0.72766436  0.04571499    -0.47380
C2571       C  0.84035425  0.55483024  0.35179658     0.41710
N2572       N  0.86782472  0.58882711  0.39433697     0.00600
C2573       C  0.97374815  0.61558707  0.05442546    -0.07280
H2574       H  0.88487710  0.52451192  0.09301817     0.06090
C2575       C  0.84285666  0.57978540  0.13985125    -0.07630
Co2576     Co  0.91568728  0.58953517  0.43830402     0.74180
N2577       N  0.89934512  0.55525660  0.03496236    -0.26810
Co2578     Co  0.91396506  0.59053064  0.07767842     0.74070
C2579       C  0.83937275  0.55538203  0.15899054     0.41810
N2580       N  0.84865044  0.60749384  0.02691492     0.00210
N2581       N  0.87648653  0.57596907  0.11721807     0.00320
N2582       N  0.97477426  0.61514070  0.46627898    -0.47650
H2583       H  0.86619755  0.53562731  0.36316612     0.06080
N2584       N  0.89997502  0.55479219  0.48322546     0.00610
N2585       N  0.92887345  0.62806513  0.11750058     0.00350
C2586       C  0.94980591  0.66532214  0.15866225     0.41950
N2587       N  0.84893151  0.60751123  0.47593254    -0.26260
C2588       C  0.95342874  0.64202408  0.36845124    -0.07180
N2589       N  0.84524970  0.57817352  0.36908722    -0.47370
N2590       N  0.95103780  0.64353085  0.14379614    -0.47590
C2591       C  0.95045042  0.66449047  0.35062777     0.41900
N2592       N  0.95031077  0.60476911  0.48391450     0.00590
N2593       N  0.89917255  0.65672650  0.47640318    -0.26280
N2594       N  0.87916868  0.57439760  0.39539042    -0.26780
N2595       N  0.89841742  0.65716900  0.02734196     0.00230
H2596       H  0.91849230  0.68727773  0.41956057     0.06120
H2597       H  0.91784735  0.67526872  0.14297868     0.06160
N2598       N  0.94927070  0.60491480  0.03563622    -0.26830
N2599       N  0.86558838  0.59069984  0.11409013    -0.26440
N2600       N  0.91666618  0.63725766  0.39384088     0.00600
C2601       C  0.88178396  0.51419993  0.00585285     0.41990
C2602       C  0.82441803  0.59307679  0.45898932    -0.07690
N2603       N  0.91439346  0.63923150  0.11434287    -0.26440
H2604       H  0.82981521  0.58766167  0.14323860     0.06140
N2605       N  0.88954959  0.53056976  0.46444411    -0.47660
H2606       H  0.81794793  0.58993816  0.41897783     0.06130
C2607       C  0.92283853  0.69719576  0.00564592     0.41830
C2608       C  0.86304725  0.55205990  0.36868133    -0.07190
Co2609     Co  0.88278691  0.62296137  0.43467091     0.73820
N2610       N  0.82498641  0.59339077  0.04613671    -0.47380
C2611       C  0.99055689  0.62231784  0.00867170     0.42100
N2612       N  0.92709554  0.65952471  0.36758941    -0.47370
Co2613     Co  0.88143408  0.62397471  0.07085521     0.73890
C2614       C  0.92549118  0.66201994  0.13983313    -0.07700
C2615       C  0.88821237  0.53043740  0.05256649    -0.07260
N2616       N  0.93115594  0.62601291  0.39544474    -0.26790
N2617       N  0.86098085  0.55391849  0.14384058    -0.47550
H2618       H  0.97909537  0.61844941  0.09519359     0.06100
C2619       C  0.91464573  0.68101455  0.45953870    -0.07670
Cl2620     Cl  0.89869257  0.60652335  0.00539327    -0.50670
C2621       C  0.80860461  0.58382418  0.00563337     0.41860
H2622       H  0.96983764  0.63884773  0.36297816     0.06070
N2623       N  0.91236898  0.68099442  0.04639290    -0.47380
C2624       C  0.66778651  0.94863526  0.35637457     0.41710
N2625       N  0.64079243  0.91310031  0.39514140     0.00600
C2626       C  0.53593349  0.88482664  0.05682900    -0.07280
H2627       H  0.62520183  0.97545212  0.09527027     0.06090
C2628       C  0.66687664  0.92153827  0.13736860    -0.07630
Co2629     Co  0.59300423  0.91143992  0.44010706     0.74180
N2630       N  0.60962410  0.94487965  0.03699331    -0.26810
Co2631     Co  0.59527745  0.90990992  0.07893344     0.74070
C2632       C  0.67045857  0.94629794  0.15486878     0.41810
N2633       N  0.66047184  0.89294282  0.02570354     0.00210
N2634       N  0.63258013  0.92444444  0.11708192     0.00320
N2635       N  0.53470534  0.88537873  0.46854800    -0.47650
H2636       H  0.64057761  0.96601006  0.36902137     0.06080
N2637       N  0.60871134  0.94543111  0.48536153     0.00610
N2638       N  0.58028018  0.87253329  0.11735462     0.00350
C2639       C  0.55795539  0.83455464  0.15454922     0.41950
N2640       N  0.66011070  0.89332290  0.47465340    -0.26260
C2641       C  0.55445289  0.86023928  0.37238750    -0.07180
N2642       N  0.66379336  0.92516257  0.37130229    -0.47370
N2643       N  0.55758116  0.85695131  0.14176252    -0.47590
C2644       C  0.55595251  0.83705296  0.35521636     0.41720
N2645       N  0.55910027  0.89614763  0.48606958     0.00590
N2646       N  0.61020688  0.84412230  0.47461911    -0.26280
N2647       N  0.62882119  0.92689887  0.39726076    -0.26780
N2648       N  0.61074592  0.84339832  0.02563081     0.00230
H2649       H  0.59264729  0.81392820  0.41651784     0.06120
H2650       H  0.58957009  0.82400225  0.13904466     0.06160
N2651       N  0.56025698  0.89585816  0.03769811    -0.26830
N2652       N  0.64363072  0.90987902  0.11352929    -0.26440
N2653       N  0.59128965  0.86387838  0.39465354     0.00600
C2654       C  0.62779813  0.98559604  0.00818274     0.41990
C2655       C  0.68468957  0.90716705  0.45752898    -0.07690
N2656       N  0.59444074  0.86105997  0.11350472    -0.26440
H2657       H  0.68032330  0.91411982  0.13992384     0.06140
N2658       N  0.61958199  0.96956549  0.46660750    -0.47660
H2659       H  0.69097890  0.91047418  0.41736486     0.06130
C2660       C  0.58782623  0.80338928  0.00281094     0.41830
C2661       C  0.64437870  0.94990673  0.37266023    -0.07190
Co2662     Co  0.62596725  0.87826046  0.43392786     0.73820
N2663       N  0.68426034  0.90612709  0.04484533    -0.47380
C2664       C  0.51927279  0.87794931  0.01115186     0.42100
N2665       N  0.57942648  0.84111222  0.36995139    -0.47370
Co2666     Co  0.62760636  0.87648473  0.07006361     0.73890
C2667       C  0.58249747  0.83774694  0.13696190    -0.07700
C2668       C  0.62129522  0.96955561  0.05485922    -0.07260
N2669       N  0.57737547  0.87570010  0.39730865    -0.26790
N2670       N  0.64832295  0.94704881  0.14167304    -0.47550
H2671       H  0.53064698  0.88155715  0.09759911     0.06100
C2672       C  0.59594716  0.81978599  0.45686483    -0.07670
Cl2673     Cl  0.61018722  0.89428463  0.00577123    -0.50670
C2674       C  0.70058294  0.91578359  0.00427766     0.41860
H2675       H  0.53835115  0.86403329  0.36881265     0.06070
N2676       N  0.59768700  0.81935995  0.04404976    -0.47380
C2677       C  0.72472926  0.91606531  0.00694123     0.41710
N2678       N  0.74217606  0.89337745  0.48610291     0.00600
C2679       C  0.81248679  0.85745277  0.14021476    -0.07280
H2680       H  0.83467195  0.96655465  0.13981693     0.06090
C2681       C  0.85876703  0.96866888  0.45662111    -0.07630
Co2682     Co  0.76109026  0.87806655  0.07818385     0.74180
N2683       N  0.80753163  0.92672802  0.11406149    -0.26810
Co2684     Co  0.82770103  0.91039405  0.07213909     0.74070
C2685       C  0.86824618  0.98524977  0.50298864     0.41810
N2686       N  0.80211677  0.92323820  0.39482859     0.00210
N2687       N  0.84700285  0.94471862  0.02647188     0.00320
N2688       N  0.76870345  0.84042223  0.14278477    -0.47650
H2689       H  0.72862013  0.91062807  0.09396552     0.06080
N2690       N  0.78172689  0.91290075  0.11634114     0.00610
N2691       N  0.84616272  0.89441636  0.02715352     0.00350
C2692       C  0.86871529  0.87669547  0.00414490     0.41950
N2693       N  0.77640436  0.90971264  0.39901675    -0.26260
C2694       C  0.73202342  0.81923200  0.05479074    -0.07180
N2695       N  0.73160772  0.90650585  0.46655293    -0.47370
N2696       N  0.86023344  0.88435398  0.04573600    -0.47590
C2697       C  0.72540378  0.80335777  0.00813750     0.41720
N2698       N  0.78061261  0.86322123  0.11820912     0.00590
N2699       N  0.77485994  0.86025268  0.39870861    -0.26280
N2700       N  0.74266842  0.89366243  0.03710266    -0.26780
N2701       N  0.80043083  0.87080004  0.39447209     0.00230
H2702       H  0.74129210  0.82508846  0.36944638     0.06120
H2703       H  0.86113248  0.87947398  0.41704741     0.06160
N2704       N  0.80632651  0.87410490  0.11548440    -0.26830
N2705       N  0.84572357  0.94389045  0.47481412    -0.26440
N2706       N  0.74166818  0.84344683  0.48673009     0.00600
C2707       C  0.78995789  0.94903389  0.15238099     0.41990
C2708       C  0.76559835  0.92186065  0.37407077    -0.07690
N2709       N  0.84482215  0.89363178  0.47548345    -0.26440
H2710       H  0.86065766  0.97437978  0.41610554     0.06140
N2711       N  0.77075428  0.92523185  0.13859266    -0.47660
H2712       H  0.74487761  0.91520121  0.37119313     0.06130
C2713       C  0.78270904  0.83406097  0.35138078     0.41830
C2714       C  0.73193575  0.90752257  0.05387997    -0.07190
Co2715     Co  0.75814977  0.87642587  0.44247353     0.73820
N2716       N  0.80984882  0.94539506  0.36817271    -0.47380
C2717       C  0.78704434  0.83487658  0.15776578     0.42100
N2718       N  0.73202049  0.81972509  0.46759798    -0.47370
Co2719     Co  0.82423949  0.90824708  0.43350850     0.73890
C2720       C  0.85859430  0.88274455  0.45755643    -0.07700
C2721       C  0.81482542  0.95020501  0.13704975    -0.07260
N2722       N  0.74213261  0.84378311  0.03777355    -0.26790
N2723       N  0.86018591  0.96908586  0.04467756    -0.47550
H2724       H  0.83196280  0.86006318  0.14352010     0.06100
C2725       C  0.76232578  0.83770730  0.37245996    -0.07670
Cl2726     Cl  0.79318956  0.89342696  0.00650505    -0.50670
C2727       C  0.78752593  0.94560379  0.35456825     0.41860
H2728       H  0.72890352  0.81278725  0.09482886     0.06070
N2729       N  0.80623585  0.85531593  0.36604241    -0.47380
C2730       C  0.55690392  0.71422466  0.35565838     0.41710
N2731       N  0.59233219  0.72308564  0.39496155     0.00600
C2732       C  0.62184558  0.64580807  0.05370020    -0.07280
H2733       H  0.53094440  0.64372205  0.09527546     0.06090
C2734       C  0.58278485  0.73935831  0.13584677    -0.07630
Co2735     Co  0.59465986  0.67702082  0.43905757     0.74180
N2736       N  0.56091931  0.65878614  0.03593045    -0.26810
Co2737     Co  0.59616580  0.68017169  0.07767893     0.74070
C2738       C  0.55822832  0.71786992  0.15298436     0.41810
N2739       N  0.61151456  0.76282624  0.02573676     0.00210
N2740       N  0.58076044  0.70242595  0.11589799     0.00320
N2741       N  0.62058997  0.64449973  0.46548573    -0.47650
H2742       H  0.53995791  0.66957086  0.36775329     0.06080
N2743       N  0.55994757  0.65744532  0.48428549     0.00610
N2744       N  0.63351556  0.70367862  0.11720676     0.00350
C2745       C  0.67066830  0.72082357  0.15894861     0.41950
N2746       N  0.61113961  0.76174572  0.47479114    -0.26260
C2747       C  0.64758988  0.69290439  0.36987534    -0.07180
N2748       N  0.58020960  0.73382661  0.37077390    -0.47370
N2749       N  0.64923117  0.69750748  0.14394363    -0.47590
C2750       C  0.66990851  0.71860991  0.35248827     0.41720
N2751       N  0.61041499  0.65845593  0.48412758     0.00590
N2752       N  0.66107068  0.76252528  0.47522622    -0.26280
N2753       N  0.57879992  0.69723944  0.39681511    -0.26780
N2754       N  0.66128413  0.76300460  0.02627067     0.00230
H2755       H  0.69223113  0.77570205  0.41863836     0.06120
H2756       H  0.67970995  0.76248576  0.14282633     0.06160
N2757       N  0.61097631  0.65962102  0.03582244    -0.26830
N2758       N  0.59485191  0.72815757  0.11243969    -0.26440
N2759       N  0.64189519  0.72448454  0.39421152     0.00600
C2760       C  0.51956303  0.63595134  0.00878000     0.41990
C2761       C  0.59692032  0.77177247  0.45686847    -0.07690
N2762       N  0.64412298  0.72931132  0.11387244    -0.26440
H2763       H  0.58985983  0.76018748  0.13838380     0.06140
N2764       N  0.53544065  0.64403641  0.46650446    -0.47660
H2765       H  0.59381325  0.77447241  0.41648650     0.06130
C2766       C  0.70139524  0.77927970  0.00540970     0.41830
C2767       C  0.55584657  0.68959145  0.37188457    -0.07190
Co2768     Co  0.62692717  0.74366166  0.43414453     0.73820
N2769       N  0.59826200  0.77357184  0.04408027    -0.47380
C2770       C  0.62811658  0.63588610  0.00704726     0.42100
N2771       N  0.66440647  0.73673289  0.36885816    -0.47370
Co2772     Co  0.62822962  0.74645714  0.06993269     0.73890
C2773       C  0.66684336  0.74148478  0.13966110    -0.07700
C2774       C  0.53636898  0.64561911  0.05459872    -0.07260
N2775       N  0.63108639  0.69873550  0.39608149    -0.26790
N2776       N  0.55797761  0.69514044  0.14011827    -0.47550
H2777       H  0.62499602  0.64313032  0.09421063     0.06100
C2778       C  0.68565187  0.77258256  0.45856885    -0.07670
Cl2779     Cl  0.61134198  0.71142580  0.00524646    -0.50670
C2780       C  0.58834623  0.77954580  0.00273319     0.41860
H2781       H  0.64491338  0.67345605  0.36496649     0.06070
N2782       N  0.68493290  0.77269628  0.04572835    -0.47380
C2783       C  0.78500549  0.58449721  0.00840073     0.41710
N2784       N  0.76909562  0.60856036  0.48717285     0.00600
C2785       C  0.69541344  0.64052176  0.13815862    -0.07280
H2786       H  0.67908721  0.53354288  0.14381346     0.06090
C2787       C  0.65307516  0.52996507  0.45842909    -0.07630
Co2788     Co  0.74944988  0.62299310  0.07922727     0.74180
N2789       N  0.70476663  0.57341490  0.11647333    -0.26810
Co2790     Co  0.68336360  0.58816264  0.07331019     0.74070
C2791       C  0.64312159  0.51400779  0.00515086     0.41810
N2792       N  0.71062365  0.57621392  0.39448023     0.00210
N2793       N  0.66551829  0.55410047  0.02798073     0.00320
N2794       N  0.73947827  0.65980557  0.14078197    -0.47650
H2795       H  0.78187704  0.59056550  0.09505041     0.06080
N2796       N  0.73045819  0.58834894  0.11917473     0.00610
N2797       N  0.66387249  0.60266235  0.02742225     0.00350
C2798       C  0.64175351  0.62081066  0.00413859     0.41950
N2799       N  0.73616813  0.59144622  0.39867758    -0.26260
C2800       C  0.77667754  0.68166942  0.05470269    -0.07180
N2801       N  0.77857901  0.59441197  0.46792897    -0.47370
N2802       N  0.65018420  0.61317634  0.04578953    -0.47590
C2803       C  0.78320206  0.69751574  0.00793962     0.41720
N2804       N  0.72866986  0.63655500  0.11830419     0.00590
N2805       N  0.73390520  0.63899181  0.39882001    -0.26280
N2806       N  0.76868400  0.60839137  0.03821239    -0.26780
N2807       N  0.70822684  0.62655115  0.39463495     0.00230
H2808       H  0.76531355  0.67597721  0.37040518     0.06120
H2809       H  0.64927935  0.61780105  0.41714527     0.06160
N2810       N  0.70291400  0.62446981  0.11551433    -0.26830
N2811       N  0.66679183  0.55460988  0.47626715    -0.26440
N2812       N  0.76724556  0.65739017  0.48690139     0.00600
C2813       C  0.72396118  0.55332605  0.15807588     0.41990
C2814       C  0.74873721  0.58146394  0.37241833    -0.07690
N2815       N  0.66508156  0.60313581  0.47569447    -0.26440
H2816       H  0.65035640  0.52408929  0.41794375     0.06140
N2817       N  0.74236131  0.57737864  0.14344976    -0.47660
H2818       H  0.76977484  0.58998870  0.36939042     0.06130
C2819       C  0.72259911  0.66321146  0.35343939     0.41830
C2820       C  0.77872241  0.59392713  0.05508381    -0.07190
Co2821     Co  0.75225979  0.62447759  0.44277979     0.73820
N2822       N  0.70484176  0.55487254  0.36618811    -0.47380
C2823       C  0.72017844  0.66427221  0.15387865     0.42100
N2824       N  0.77660013  0.68104907  0.46754989    -0.47370
Co2825     Co  0.68674598  0.58954266  0.43374302     0.73890
C2826       C  0.65147259  0.61420164  0.45764244    -0.07700
C2827       C  0.69856716  0.55048925  0.14077032    -0.07260
N2828       N  0.76694978  0.65713364  0.03793314    -0.26790
N2829       N  0.65152186  0.53003154  0.04673516    -0.47550
H2830       H  0.67554401  0.63693629  0.14031569     0.06100
C2831       C  0.74460774  0.66177230  0.37328648    -0.07670
Cl2832     Cl  0.71731675  0.60588498  0.00720391    -0.50670
C2833       C  0.72833644  0.55722217  0.35137914     0.41860
H2834       H  0.78000306  0.68815869  0.09473075     0.06070
N2835       N  0.70032075  0.64065108  0.36744301    -0.47380
O2836       O  0.71434617  0.96928754  0.83459259    -0.80890
O2837       O  0.76289217  0.96833423  0.66613997    -0.80910
O2838       O  0.69596745  0.98375943  0.70758073    -0.80920
O2839       O  0.80394388  0.98276380  0.80042220    -0.80860
O2840       O  0.71687904  0.96762477  0.66765428    -0.80980
O2841       O  0.76417706  0.96854350  0.83307569    -0.80900
O2842       O  0.79957588  0.98483495  0.70748044    -0.80890
O2843       O  0.68998010  0.98435262  0.80014730    -0.80920
C2844       C  0.69192194  0.96868070  0.83026651     1.08800
C2845       C  0.78433062  0.96885848  0.67510317     1.08690
C2846       C  0.69560992  0.96740933  0.67654007     1.08830
C2847       C  0.78550767  0.96702931  0.82923653     1.08700
O2848       O  0.79313318  0.52650403  0.85047575    -0.80890
O2849       O  0.74319961  0.52548505  0.65497021    -0.80960
O2850       O  0.72516178  0.52970326  0.78042602    -0.80900
O2851       O  0.81429410  0.52610327  0.72775064    -0.80880
O2852       O  0.79273666  0.52631478  0.65562507    -0.80930
O2853       O  0.74539220  0.52747528  0.85000357    -0.80900
O2854       O  0.81517111  0.52886360  0.78032198    -0.80860
O2855       O  0.72309501  0.52658542  0.72841486    -0.80930
Co2856     Co  0.75474409  0.99889354  0.83168178     1.51530
Co2857     Co  0.75442984  0.49797580  0.66752405     1.51690
Co2858     Co  0.72198480  0.99560482  0.76483517     1.51570
Co2859     Co  0.78409221  0.49508919  0.76448997     1.51470
O2860       O  0.75887211  0.00686851  0.74688795    -1.42820
C2861       C  0.81511252  0.53597475  0.82656637     1.08730
C2862       C  0.73039778  0.53402419  0.68130957     1.08820
C2863       C  0.73306427  0.53720152  0.82633785     1.08760
C2864       C  0.81418338  0.53451983  0.68149041     1.08730
O2865       O  0.97800623  0.76043941  0.84998958    -0.80890
O2866       O  0.97888567  0.71193378  0.65469656    -0.80910
O2867       O  0.97774768  0.78136252  0.72747682    -0.80920
O2868       O  0.97638178  0.68975700  0.77939196    -0.80860
O2869       O  0.97866209  0.76080955  0.65457623    -0.80980
O2870       O  0.97821531  0.71179433  0.84944809    -0.80900
O2871       O  0.97893376  0.69058850  0.72711301    -0.80890
O2872       O  0.97510433  0.77962196  0.77939266    -0.80920
C2873       C  0.96836206  0.77280749  0.82602177     1.08800
C2874       C  0.97071041  0.69054238  0.68072725     1.08690
C2875       C  0.96992780  0.77346860  0.68075898     1.08830
C2876       C  0.96915236  0.68980157  0.82558346     1.08700
O2877       O  0.53602774  0.73991799  0.83370550    -0.80890
O2878       O  0.53658365  0.78815542  0.66679963    -0.80960
O2879       O  0.52036309  0.81481539  0.79893348    -0.80900
O2880       O  0.52103764  0.70583265  0.70628914    -0.80880
O2881       O  0.53672589  0.74275047  0.66597430    -0.80930
O2882       O  0.53572759  0.79055839  0.83305528    -0.80900
O2883       O  0.52178703  0.70069853  0.79827554    -0.80860
O2884       O  0.52027117  0.80892743  0.70647605    -0.80930
Co2885     Co  0.50603252  0.75016896  0.83107163     1.51530
Co2886     Co  0.50668017  0.75040744  0.66685365     1.51690
Co2887     Co  0.50908105  0.78286166  0.76343053     1.51570
Co2888     Co  0.50996216  0.72088079  0.76296582     1.51470
O2889       O  0.49792544  0.74595891  0.74620759    -1.42820
C2890       C  0.53696495  0.71823501  0.82910990     1.08730
C2891       C  0.53669515  0.80938645  0.67562858     1.08820
C2892       C  0.53608802  0.81291351  0.82897196     1.08760
C2893       C  0.53705370  0.72170671  0.67471722     1.08730
O2894       O  0.74605782  0.70943918  0.83188092    -0.80890
O2895       O  0.79324508  0.75620556  0.66741788    -0.80910
O2896       O  0.71038941  0.69067140  0.70732887    -0.80920
O2897       O  0.82055428  0.79947927  0.79947171    -0.80860
O2898       O  0.74718304  0.71075756  0.66641958    -0.80980
O2899       O  0.79589492  0.75996664  0.83370005    -0.80900
O2900       O  0.81441439  0.79328870  0.70737565    -0.80890
O2901       O  0.70611283  0.68398051  0.79981588    -0.80920
C2902       C  0.72461541  0.68662487  0.82824527     1.08800
C2903       C  0.81459621  0.77727783  0.67625304     1.08690
C2904       C  0.72570480  0.68983581  0.67547141     1.08830
C2905       C  0.81841925  0.78173440  0.82940964     1.08700
O2906       O  0.76521055  0.78720307  0.84977495    -0.80890
O2907       O  0.71738718  0.73883841  0.65549235    -0.80960
O2908       O  0.69512739  0.71896260  0.78026928    -0.80900
O2909       O  0.78771153  0.80888540  0.72802561    -0.80880
O2910       O  0.76711826  0.78769321  0.65484007    -0.80930
O2911       O  0.71720970  0.73815758  0.85071225    -0.80900
O2912       O  0.78557688  0.80978951  0.78029144    -0.80860
O2913       O  0.69592339  0.71714897  0.72777667    -0.80930
Co2914     Co  0.75559278  0.74921729  0.83124558     1.51530
Co2915     Co  0.75572031  0.74889771  0.66738743     1.51690
Co2916     Co  0.72609319  0.71632131  0.76428076     1.51570
Co2917     Co  0.78841470  0.77881722  0.76442568     1.51470
O2918       O  0.75138806  0.75336699  0.74670086    -1.42820
C2919       C  0.77778536  0.80932668  0.82625210     1.08730
C2920       C  0.69596518  0.72556130  0.68146052     1.08820
C2921       C  0.69518932  0.72562157  0.82687911     1.08760
C2922       C  0.78033454  0.80907224  0.68102323     1.08730
C2923       C  0.95002970  0.77983595  0.85164500     0.41710
N2924       N  0.91617509  0.77407459  0.89384070     0.00600
C2925       C  0.89016049  0.85333536  0.55382292    -0.07280
H2926       H  0.97925281  0.85512483  0.59742714     0.06090
C2927       C  0.92449986  0.75706644  0.63955388    -0.07630
Co2928     Co  0.91712621  0.82154712  0.93967582     0.74180
N2929       N  0.94986661  0.83846568  0.53723666    -0.26810
Co2930     Co  0.91475011  0.81827805  0.57843030     0.74070
C2931       C  0.94914112  0.77787168  0.65826387     0.41810
N2932       N  0.89634510  0.73526796  0.52687011     0.00210
N2933       N  0.92856935  0.79477254  0.61790778     0.00320
N2934       N  0.89179618  0.85482775  0.96568650    -0.47650
H2935       H  0.97083725  0.82487174  0.86595871     0.06080
N2936       N  0.95109355  0.83971449  0.98559360     0.00610
N2937       N  0.87727251  0.79638039  0.61677876     0.00350
C2938       C  0.83962980  0.78107351  0.65500928     0.41950
N2939       N  0.89690417  0.73636674  0.97586773    -0.26260
C2940       C  0.86621332  0.80987861  0.87158476    -0.07180
N2941       N  0.92611763  0.76184166  0.86733942    -0.47370
N2942       N  0.86194495  0.80377120  0.64122471    -0.47590
C2943       C  0.84238327  0.78545427  0.85531669     0.41720
N2944       N  0.90227084  0.84115651  0.98449749     0.00590
N2945       N  0.84778926  0.73746393  0.97554964    -0.26280
N2946       N  0.93155036  0.79974449  0.89661693    -0.26780
N2947       N  0.84748638  0.73690206  0.52655569     0.00230
H2948       H  0.81696562  0.72513603  0.91848636     0.06120
H2949       H  0.82891896  0.73870198  0.64132614     0.06160
N2950       N  0.90134097  0.83980014  0.53615182    -0.26830
N2951       N  0.91362590  0.76912605  0.61447037    -0.26440
N2952       N  0.86833151  0.77600489  0.89518775     0.00600
C2953       C  0.99077409  0.86260446  0.01098142     0.41990
C2954       C  0.91225774  0.72748016  0.95887651    -0.07690
N2955       N  0.86568908  0.77066602  0.61392979    -0.26440
H2956       H  0.91652523  0.73608904  0.64253018     0.06140
N2957       N  0.97545186  0.85406732  0.96822326    -0.47660
H2958       H  0.91616255  0.72516731  0.91892070     0.06130
C2959       C  0.80746251  0.72144562  0.50528088     0.41830
C2960       C  0.95386783  0.80548775  0.87039468    -0.07190
Co2961     Co  0.88182909  0.75514500  0.93444200     0.73820
N2962       N  0.91059261  0.72575686  0.54582980    -0.47380
C2963       C  0.88385347  0.86313085  0.50713218     0.42100
N2964       N  0.84550845  0.76557491  0.87090488    -0.47370
Co2965     Co  0.88041946  0.75226661  0.57077332     0.73890
C2966       C  0.84264769  0.75953522  0.63826205    -0.07700
C2967       C  0.97410031  0.85240049  0.55655751    -0.07260
N2968       N  0.88112390  0.80185732  0.89683853    -0.26790
N2969       N  0.95070335  0.80108729  0.64385952    -0.47550
H2970       H  0.88631044  0.85543209  0.59420425     0.06100
C2971       C  0.82332660  0.72798277  0.95858661    -0.07670
Cl2972     Cl  0.89878983  0.78720389  0.50583611    -0.50670
C2973       C  0.92137338  0.72051081  0.50508978     0.41860
H2974       H  0.87073444  0.83000767  0.86735027     0.06070
N2975       N  0.82384300  0.72766435  0.54571501    -0.47380
C2976       C  0.84035425  0.55483024  0.85179657     0.41710
N2977       N  0.86782472  0.58882711  0.89433695     0.00600
C2978       C  0.97374815  0.61558707  0.55442547    -0.07280
H2979       H  0.88487710  0.52451192  0.59301818     0.06090
C2980       C  0.84285667  0.57978540  0.63985126    -0.07630
Co2981     Co  0.91568728  0.58953516  0.93830401     0.74180
N2982       N  0.89934512  0.55525660  0.53496238    -0.26810
Co2983     Co  0.91396507  0.59053064  0.57767843     0.74070
C2984       C  0.83937275  0.55538203  0.65899055     0.41810
N2985       N  0.84865044  0.60749385  0.52691494     0.00210
N2986       N  0.87648653  0.57596908  0.61721809     0.00320
N2987       N  0.97477426  0.61514070  0.96627897    -0.47650
H2988       H  0.86619755  0.53562731  0.86316612     0.06080
N2989       N  0.89997502  0.55479219  0.98322544     0.00610
N2990       N  0.92887345  0.62806514  0.61750060     0.00350
C2991       C  0.94980592  0.66532215  0.65866225     0.41950
N2992       N  0.84893151  0.60751122  0.97593252    -0.26260
C2993       C  0.95342874  0.64202408  0.86845124    -0.07180
N2994       N  0.84524971  0.57817352  0.86908720    -0.47370
N2995       N  0.95103781  0.64353086  0.64379615    -0.47590
C2996       C  0.95045043  0.66449048  0.85062776     0.41900
N2997       N  0.95031077  0.60476911  0.98391449     0.00590
N2998       N  0.89917254  0.65672649  0.97640317    -0.26280
N2999       N  0.87916869  0.57439760  0.89539040    -0.26780
N3000       N  0.89841742  0.65716900  0.52734197     0.00230
H3001       H  0.91849230  0.68727773  0.91956055     0.06120
H3002       H  0.91784736  0.67526872  0.64297869     0.06160
N3003       N  0.94927070  0.60491480  0.53563623    -0.26830
N3004       N  0.86558839  0.59069984  0.61409015    -0.26440
N3005       N  0.91666618  0.63725766  0.89384086     0.00600
C3006       C  0.88178396  0.51419993  0.50585286     0.41990
C3007       C  0.82441803  0.59307679  0.95898930    -0.07690
N3008       N  0.91439346  0.63923150  0.61434288    -0.26440
H3009       H  0.82981521  0.58766167  0.64323862     0.06140
N3010       N  0.88954959  0.53056976  0.96444409    -0.47660
H3011       H  0.81794793  0.58993815  0.91897781     0.06130
C3012       C  0.92283853  0.69719576  0.50564593     0.41830
C3013       C  0.86304725  0.55205990  0.86868132    -0.07190
Co3014     Co  0.88278691  0.62296137  0.93467089     0.73820
N3015       N  0.82498642  0.59339077  0.54613673    -0.47380
C3016       C  0.99055689  0.62231784  0.50867171     0.42100
N3017       N  0.92709554  0.65952471  0.86758940    -0.47370
Co3018     Co  0.88143408  0.62397471  0.57085523     0.73890
C3019       C  0.92549119  0.66201994  0.63983315    -0.07700
C3020       C  0.88821237  0.53043740  0.55256650    -0.07260
N3021       N  0.93115595  0.62601291  0.89544473    -0.26790
N3022       N  0.86098085  0.55391850  0.64384059    -0.47550
H3023       H  0.97909538  0.61844941  0.59519360     0.06100
C3024       C  0.91464572  0.68101455  0.95953869    -0.07670
Cl3025     Cl  0.89869257  0.60652335  0.50539328    -0.50670
C3026       C  0.80860461  0.58382418  0.50563339     0.41860
H3027       H  0.96983765  0.63884773  0.86297816     0.06070
N3028       N  0.91236898  0.68099443  0.54639291    -0.47380
C3029       C  0.66778651  0.94863526  0.85637458     0.41710
N3030       N  0.64079243  0.91310032  0.89514142     0.00600
C3031       C  0.53593349  0.88482664  0.55682899    -0.07280
H3032       H  0.62520182  0.97545212  0.59527025     0.06090
C3033       C  0.66687664  0.92153827  0.63736858    -0.07630
Co3034     Co  0.59300424  0.91143992  0.94010708     0.74180
N3035       N  0.60962409  0.94487965  0.53699329    -0.26810
Co3036     Co  0.59527745  0.90990992  0.57893342     0.74070
C3037       C  0.67045857  0.94629794  0.65486876     0.41810
N3038       N  0.66047184  0.89294282  0.52570352     0.00210
N3039       N  0.63258013  0.92444444  0.61708190     0.00320
N3040       N  0.53470534  0.88537874  0.96854802    -0.47650
H3041       H  0.64057761  0.96601006  0.86902138     0.06080
N3042       N  0.60871134  0.94543111  0.98536155     0.00610
N3043       N  0.58028019  0.87253329  0.61735461     0.00350
C3044       C  0.55795539  0.83455465  0.65454922     0.41950
N3045       N  0.66011070  0.89332290  0.97465342    -0.26260
C3046       C  0.55445289  0.86023928  0.87238752    -0.07180
N3047       N  0.66379336  0.92516257  0.87130231    -0.47370
N3048       N  0.55758116  0.85695131  0.64176251    -0.47590
C3049       C  0.55595251  0.83705296  0.85521638     0.41720
N3050       N  0.55910027  0.89614763  0.98606959     0.00590
N3051       N  0.61020688  0.84412230  0.97461912    -0.26280
N3052       N  0.62882120  0.92689887  0.89726078    -0.26780
N3053       N  0.61074592  0.84339832  0.52563080     0.00230
H3054       H  0.59264729  0.81392820  0.91651786     0.06120
H3055       H  0.58957010  0.82400225  0.63904465     0.06160
N3056       N  0.56025698  0.89585816  0.53769810    -0.26830
N3057       N  0.64363072  0.90987902  0.61352927    -0.26440
N3058       N  0.59128965  0.86387838  0.89465356     0.00600
C3059       C  0.62779812  0.98559604  0.50818273     0.41990
C3060       C  0.68468957  0.90716705  0.95752900    -0.07690
N3061       N  0.59444075  0.86105997  0.61350470    -0.26440
H3062       H  0.68032330  0.91411982  0.63992382     0.06140
N3063       N  0.61958200  0.96956550  0.96660752    -0.47660
H3064       H  0.69097890  0.91047418  0.91736488     0.06130
C3065       C  0.58782623  0.80338928  0.50281093     0.41830
C3066       C  0.64437870  0.94990673  0.87266024    -0.07190
Co3067     Co  0.62596725  0.87826046  0.93392788     0.73820
N3068       N  0.68426034  0.90612709  0.54484531    -0.47380
C3069       C  0.51927279  0.87794931  0.51115185     0.42100
N3070       N  0.57942648  0.84111223  0.86995141    -0.47370
Co3071     Co  0.62760636  0.87648474  0.57006359     0.73890
C3072       C  0.58249748  0.83774695  0.63696189    -0.07700
C3073       C  0.62129521  0.96955561  0.55485921    -0.07260
N3074       N  0.57737548  0.87570010  0.89730867    -0.26790
N3075       N  0.64832295  0.94704881  0.64167302    -0.47550
H3076       H  0.53064699  0.88155715  0.59759910     0.06100
C3077       C  0.59594716  0.81978599  0.95686484    -0.07670
Cl3078     Cl  0.61018722  0.89428463  0.50577121    -0.50670
C3079       C  0.70058294  0.91578360  0.50427764     0.41860
H3080       H  0.53835115  0.86403329  0.86881267     0.06070
N3081       N  0.59768700  0.81935995  0.54404975    -0.47380
C3082       C  0.72472926  0.91606531  0.50694122     0.41710
N3083       N  0.74217606  0.89337745  0.98610292     0.00600
C3084       C  0.81248679  0.85745277  0.64021476    -0.07280
H3085       H  0.83467195  0.96655464  0.63981694     0.06090
C3086       C  0.85876703  0.96866888  0.95662110    -0.07630
Co3087     Co  0.76109025  0.87806654  0.57818384     0.74180
N3088       N  0.80753162  0.92672801  0.61406149    -0.26810
Co3089     Co  0.82770102  0.91039405  0.57213910     0.74070
C3090       C  0.86824619  0.98524977  0.00298862     0.41810
N3091       N  0.80211677  0.92323820  0.89482859     0.00210
N3092       N  0.84700285  0.94471862  0.52647190     0.00320
N3093       N  0.76870345  0.84042222  0.64278476    -0.47650
H3094       H  0.72862012  0.91062806  0.59396551     0.06080
N3095       N  0.78172688  0.91290074  0.61634114     0.00610
N3096       N  0.84616272  0.89441636  0.52715353     0.00350
C3097       C  0.86871529  0.87669547  0.50414491     0.41950
N3098       N  0.77640435  0.90971264  0.89901675    -0.26260
C3099       C  0.73202342  0.81923199  0.55479073    -0.07180
N3100       N  0.73160772  0.90650585  0.96655294    -0.47370
N3101       N  0.86023344  0.88435397  0.54573601    -0.47590
C3102       C  0.72540378  0.80335777  0.50813748     0.41720
N3103       N  0.78061261  0.86322123  0.61820912     0.00590
N3104       N  0.77485993  0.86025268  0.89870861    -0.26280
N3105       N  0.74266842  0.89366243  0.53710265    -0.26780
N3106       N  0.80043082  0.87080003  0.89447209     0.00230
H3107       H  0.74129209  0.82508846  0.86944639     0.06120
H3108       H  0.86113248  0.87947398  0.91704740     0.06160
N3109       N  0.80632650  0.87410489  0.61548440    -0.26830
N3110       N  0.84572357  0.94389045  0.97481410    -0.26440
N3111       N  0.74166818  0.84344683  0.98673010     0.00600
C3112       C  0.78995788  0.94903388  0.65238099     0.41990
C3113       C  0.76559834  0.92186065  0.87407077    -0.07690
N3114       N  0.84482215  0.89363178  0.97548344    -0.26440
H3115       H  0.86065766  0.97437977  0.91610552     0.06140
N3116       N  0.77075427  0.92523184  0.63859265    -0.47660
H3117       H  0.74487761  0.91520121  0.87119314     0.06130
C3118       C  0.78270903  0.83406097  0.85138078     0.41830
C3119       C  0.73193574  0.90752257  0.55387996    -0.07190
Co3120     Co  0.75814977  0.87642587  0.94247354     0.73820
N3121       N  0.80984881  0.94539506  0.86817270    -0.47380
C3122       C  0.78704433  0.83487657  0.65776577     0.42100
N3123       N  0.73202049  0.81972509  0.96759800    -0.47370
Co3124     Co  0.82423949  0.90824708  0.93350849     0.73890
C3125       C  0.85859430  0.88274455  0.95755642    -0.07700
C3126       C  0.81482541  0.95020501  0.63704976    -0.07260
N3127       N  0.74213261  0.84378311  0.53777354    -0.26790
N3128       N  0.86018590  0.96908586  0.54467757    -0.47550
H3129       H  0.83196279  0.86006317  0.64352010     0.06100
C3130       C  0.76232577  0.83770730  0.87245997    -0.07670
Cl3131     Cl  0.79318956  0.89342696  0.50650505    -0.50670
C3132       C  0.78752593  0.94560379  0.85456824     0.41860
H3133       H  0.72890352  0.81278724  0.59482885     0.06070
N3134       N  0.80623584  0.85531592  0.86604241    -0.47380
C3135       C  0.55690393  0.71422467  0.85565839     0.41710
N3136       N  0.59233220  0.72308564  0.89496155     0.00600
C3137       C  0.62184558  0.64580807  0.55370019    -0.07280
H3138       H  0.53094441  0.64372205  0.59527546     0.06090
C3139       C  0.58278486  0.73935831  0.63584677    -0.07630
Co3140     Co  0.59465987  0.67702082  0.93905758     0.74180
N3141       N  0.56091931  0.65878614  0.53593045    -0.26810
Co3142     Co  0.59616580  0.68017169  0.57767893     0.74070
C3143       C  0.55822833  0.71786992  0.65298436     0.41810
N3144       N  0.61151456  0.76282624  0.52573675     0.00210
N3145       N  0.58076044  0.70242596  0.61589799     0.00320
N3146       N  0.62058997  0.64449973  0.96548574    -0.47650
H3147       H  0.53995792  0.66957087  0.86775329     0.06080
N3148       N  0.55994757  0.65744532  0.98428549     0.00610
N3149       N  0.63351557  0.70367862  0.61720675     0.00350
C3150       C  0.67066830  0.72082357  0.65894860     0.41950
N3151       N  0.61113962  0.76174572  0.97479115    -0.26260
C3152       C  0.64758988  0.69290439  0.86987534    -0.07180
N3153       N  0.58020960  0.73382661  0.87077391    -0.47370
N3154       N  0.64923118  0.69750749  0.64394362    -0.47590
C3155       C  0.66990851  0.71860991  0.85248827     0.41720
N3156       N  0.61041499  0.65845593  0.98412758     0.00590
N3157       N  0.66107069  0.76252527  0.97522624    -0.26280
N3158       N  0.57879993  0.69723944  0.89681512    -0.26780
N3159       N  0.66128413  0.76300461  0.52627066     0.00230
H3160       H  0.69223113  0.77570204  0.91863838     0.06120
H3161       H  0.67970995  0.76248577  0.64282632     0.06160
N3162       N  0.61097631  0.65962102  0.53582243    -0.26830
N3163       N  0.59485191  0.72815757  0.61243968    -0.26440
N3164       N  0.64189520  0.72448454  0.89421153     0.00600
C3165       C  0.51956303  0.63595134  0.50878000     0.41990
C3166       C  0.59692032  0.77177247  0.95686847    -0.07690
N3167       N  0.64412299  0.72931132  0.61387243    -0.26440
H3168       H  0.58985984  0.76018749  0.63838380     0.06140
N3169       N  0.53544066  0.64403641  0.96650446    -0.47660
H3170       H  0.59381325  0.77447241  0.91648650     0.06130
C3171       C  0.70139524  0.77927970  0.50540968     0.41830
C3172       C  0.55584657  0.68959145  0.87188458    -0.07190
Co3173     Co  0.62692717  0.74366166  0.93414454     0.73820
N3174       N  0.59826200  0.77357184  0.54408026    -0.47380
C3175       C  0.62811658  0.63588610  0.50704726     0.42100
N3176       N  0.66440647  0.73673289  0.86885817    -0.47370
Co3177     Co  0.62822962  0.74645714  0.56993268     0.73890
C3178       C  0.66684336  0.74148479  0.63966109    -0.07700
C3179       C  0.53636898  0.64561912  0.55459872    -0.07260
N3180       N  0.63108640  0.69873550  0.89608150    -0.26790
N3181       N  0.55797761  0.69514045  0.64011828    -0.47550
H3182       H  0.62499602  0.64313032  0.59421062     0.06100
C3183       C  0.68565187  0.77258255  0.95856887    -0.07670
Cl3184     Cl  0.61134198  0.71142580  0.50524645    -0.50670
C3185       C  0.58834623  0.77954580  0.50273318     0.41860
H3186       H  0.64491338  0.67345605  0.86496649     0.06070
N3187       N  0.68493291  0.77269628  0.54572834    -0.47380
C3188       C  0.78500548  0.58449721  0.50840075     0.41710
N3189       N  0.76909562  0.60856036  0.98717283     0.00600
C3190       C  0.69541343  0.64052176  0.63815862    -0.07280
H3191       H  0.67908720  0.53354287  0.64381346     0.06090
C3192       C  0.65307517  0.52996507  0.95842910    -0.07630
Co3193     Co  0.74944987  0.62299310  0.57922728     0.74180
N3194       N  0.70476662  0.57341490  0.61647333    -0.26810
Co3195     Co  0.68336359  0.58816264  0.57331019     0.74070
C3196       C  0.64312158  0.51400779  0.50515084     0.41810
N3197       N  0.71062365  0.57621392  0.89448023     0.00210
N3198       N  0.66551828  0.55410046  0.52798073     0.00320
N3199       N  0.73947826  0.65980556  0.64078198    -0.47650
H3200       H  0.78187703  0.59056550  0.59505043     0.06080
N3201       N  0.73045818  0.58834894  0.61917473     0.00610
N3202       N  0.66387249  0.60266235  0.52742224     0.00350
C3203       C  0.64175351  0.62081066  0.50413859     0.41950
N3204       N  0.73616813  0.59144622  0.89867757    -0.26260
C3205       C  0.77667754  0.68166942  0.55470271    -0.07180
N3206       N  0.77857901  0.59441197  0.96792896    -0.47370
N3207       N  0.65018419  0.61317634  0.54578953    -0.47590
C3208       C  0.78320206  0.69751573  0.50793964     0.41720
N3209       N  0.72866985  0.63655499  0.61830420     0.00590
N3210       N  0.73390520  0.63899181  0.89882000    -0.26280
N3211       N  0.76868399  0.60839136  0.53821241    -0.26780
N3212       N  0.70822684  0.62655115  0.89463494     0.00230
H3213       H  0.76531355  0.67597721  0.87040516     0.06120
H3214       H  0.64927935  0.61780104  0.91714527     0.06160
N3215       N  0.70291399  0.62446980  0.61551433    -0.26830
N3216       N  0.66679184  0.55460988  0.97626716    -0.26440
N3217       N  0.76724556  0.65739017  0.98690137     0.00600
C3218       C  0.72396117  0.55332604  0.65807588     0.41990
C3219       C  0.74873721  0.58146394  0.87241832    -0.07690
N3220       N  0.66508156  0.60313581  0.97569447    -0.26440
H3221       H  0.65035641  0.52408929  0.91794377     0.06140
N3222       N  0.74236130  0.57737863  0.64344977    -0.47660
H3223       H  0.76977484  0.58998870  0.86939041     0.06130
C3224       C  0.72259911  0.66321146  0.85343938     0.41830
C3225       C  0.77872241  0.59392712  0.55508383    -0.07190
Co3226     Co  0.75225979  0.62447759  0.94277978     0.73820
N3227       N  0.70484176  0.55487254  0.86618811    -0.47380
C3228       C  0.72017843  0.66427220  0.65387865     0.42100
N3229       N  0.77660013  0.68104908  0.96754987    -0.47370
Co3230     Co  0.68674598  0.58954266  0.93374302     0.73890
C3231       C  0.65147259  0.61420164  0.95764244    -0.07700
C3232       C  0.69856715  0.55048924  0.64077032    -0.07260
N3233       N  0.76694977  0.65713364  0.53793316    -0.26790
N3234       N  0.65152185  0.53003153  0.54673515    -0.47550
H3235       H  0.67554400  0.63693629  0.64031569     0.06100
C3236       C  0.74460774  0.66177230  0.87328646    -0.07670
Cl3237     Cl  0.71731675  0.60588498  0.50720391    -0.50670
C3238       C  0.72833644  0.55722217  0.85137913     0.41860
H3239       H  0.78000306  0.68815868  0.59473077     0.06070
N3240       N  0.70032074  0.64065108  0.86744301    -0.47380
loop_ 
_geom_bond_atom_site_label_1 
_geom_bond_atom_site_label_2 
_geom_bond_distance 
_geom_bond_site_symmetry_2 
_ccdc_geom_bond_type 
O1            C9   1.308       .  A
O1          Co21   2.132       .  S
O2           C10   1.268       .  A
O2         Co832   2.041       .  S
O3           C11   1.241       .  A
O3          Co23   1.980       .  S
O4           C12   1.255       .  A
O4         Co834   1.895       .  S
O5           C11   1.267       .  A
O5         Co832   2.030       .  S
O6           C12   1.307       .  A
O6          Co21   2.120       .  S
O7           C10   1.239       .  A
O7         Co834   1.972       .  S
O8            C9   1.252       .  A
O8          Co23   1.887       .  S
C9          C194   1.476       .  S
C10         C277   1.483       .  S
C11         C202   1.484       .  S
C12         C297   1.475       .  S
O13          C26   1.280       .  A
O13        Co831   2.074   1_545  S
O14          C27   1.288       .  A
O14         Co22   2.058   1_545  S
O15          C28   1.263       .  A
O15        Co833   1.961   1_545  S
O16          C29   1.288       .  A
O16         Co24   2.032   1_545  S
O17          C29   1.287       .  A
O17         Co22   2.047   1_545  S
O18          C28   1.281       .  A
O18        Co831   2.070   1_545  S
O19          C26   1.259       .  A
O19         Co24   1.954   1_545  S
O20          C27   1.284       .  A
O20        Co833   2.020   1_545  S
Co21        O823   2.074       .  S
Co21        O828   2.070       .  S
Co21         O25   2.214       .  S
Co22        O812   2.041       .  S
Co22        O815   2.030       .  S
Co22        O835   2.087   1_565  S
Co23        O825   1.961       .  S
Co23        O830   2.020       .  S
Co23         O25   1.982       .  S
Co24        O814   1.895       .  S
Co24        O817   1.972       .  S
Co24        O835   1.980   1_565  S
O25        Co832   2.087       .  S
O25        Co834   1.980       .  S
C26         C141   1.485       .  S
C27         C383   1.490       .  S
C28         C403   1.486       .  S
C29         C149   1.488       .  S
O30          C38   1.282       .  A
O30       Co1670   2.080       .  S
O31          C39   1.286       .  A
O31       Co1671   2.046       .  S
O32          C40   1.285       .  A
O32       Co1672   2.025       .  S
O33          C41   1.260       .  A
O33       Co1673   1.952       .  S
O34          C40   1.287       .  A
O34       Co1671   2.052       .  S
O35          C41   1.282       .  A
O35       Co1670   2.073       .  S
O36          C39   1.285       .  A
O36       Co1673   2.024       .  S
O37          C38   1.261       .  A
O37       Co1672   1.956       .  S
C38          C88   1.489       .  S
C39         C156   1.486       .  S
C40          C96   1.489       .  S
C41         C161   1.483       .  S
O42          C55   1.310       .  A
O42         Co50   2.135       .  S
O43          C56   1.267       .  A
O43         Co51   2.028       .  S
O44          C57   1.252       .  A
O44         Co52   1.886       .  S
O45          C58   1.239       .  A
O45         Co53   1.977       .  S
O46          C58   1.268       .  A
O46         Co51   2.033       .  S
O47          C57   1.309       .  A
O47         Co50   2.131       .  S
O48          C55   1.251       .  A
O48         Co53   1.883       .  S
O49          C56   1.240       .  A
O49         Co52   1.977       .  S
Co50       O1650   2.080   1_455  S
Co50       O1655   2.073   1_455  S
Co50         O54   2.217   1_455  S
Co51       O1651   2.046   1_455  S
Co51       O1654   2.052   1_455  S
Co51         O54   2.085   1_455  S
Co52       O1652   2.025   1_455  S
Co52       O1657   1.956   1_455  S
Co52         O54   1.978   1_455  S
Co53       O1653   1.952   1_455  S
Co53       O1656   2.024   1_455  S
Co53         O54   1.978   1_455  S
C55         C300   1.475       .  S
C56         C209   1.481       .  S
C57         C214   1.475       .  S
C58         C308   1.483       .  S
O59          C67   1.306       .  A
O59         Co79   2.116       .  S
O60          C68   1.268       .  A
O60         Co80   2.029       .  S
O61          C69   1.237       .  A
O61         Co81   1.968       .  S
O62          C70   1.251       .  A
O62         Co82   1.887       .  S
O63          C69   1.268       .  A
O63         Co80   2.039       .  S
O64          C70   1.307       .  A
O64         Co79   2.129       .  S
O65          C68   1.240       .  A
O65         Co82   1.977       .  S
O66          C67   1.254       .  A
O66         Co81   1.895       .  S
C67         C389   1.472       .  S
C68         C103   1.480       .  S
C69         C393   1.478       .  S
C70         C108   1.474       .  S
O71          C84   1.281       .  A
O71         Co79   2.068       .  S
O72          C85   1.288       .  A
O72         Co80   2.049       .  S
O73          C86   1.259       .  A
O73         Co81   1.950       .  S
O74          C87   1.284       .  A
O74         Co82   2.019       .  S
O75          C87   1.288       .  A
O75         Co80   2.057       .  S
O76          C86   1.281       .  A
O76         Co79   2.076       .  S
O77          C84   1.261       .  A
O77         Co82   1.955       .  S
O78          C85   1.287       .  A
O78         Co81   2.030       .  S
Co79         O83   2.211       .  S
Co80         O83   2.085       .  S
Co81         O83   1.980       .  S
Co82         O83   1.982       .  S
C84         C283   1.482       .  S
C85         C315   1.488       .  S
C86         C320   1.484       .  S
C87         C287   1.489       .  S
C88         C125   1.490       .  S
C88         N106   1.331       .  A
N89         N106   1.322       .  A
N89         N111   1.317       .  A
N89        Co126   2.039       .  S
C90         C128   1.456       .  S
C90         N115   1.342       .  A
C90         H135   1.081       .  S
H91         C132   1.081       .  S
C92          C96   1.433       .  S
C92         N116   1.335       .  A
C92         H121   1.081       .  S
Co93        N111   2.164       .  S
Co93        N101   2.095       .  S
Co93        N133   2.141       .  S
Co93        N109   2.106       .  S
Co93       Cl542   2.438       .  S
N94         C132   1.335       .  A
N94         N506   1.328   1_554  A
N94         Co95   2.084       .  S
Co95         N98   2.175       .  S
Co95        N115   2.099       .  S
Co95        N102   2.156       .  S
Co95       Cl137   2.445       .  S
C96         N134   1.373       .  A
N97         N127   1.313       .  A
N97         N509   1.310   1_554  A
N97        Co130   2.023       .  S
N98         N116   1.315       .  A
N98         N134   1.340       .  A
N99         C533   1.349       .  A
N99         N109   1.326       .  A
H100        C125   1.082       .  S
N101        N122   1.325       .  A
N101        N499   1.328       .  A
N102        N120   1.314       .  A
N102        N107   1.339       .  A
C103        C131   1.431       .  S
C103        N107   1.370       .  A
N104        C119   1.325       .  A
N104        N502   1.310       .  A
N104       Co126   2.030       .  S
C105        C108   1.479       .  S
C105        N133   1.352       .  A
C105        H139   1.081       .  S
C108        N129   1.333       .  A
N109        N520   1.328       .  A
N110        C136   1.330       .  A
N110        N517   1.310       .  A
N110       Co126   2.031       .  S
N111        C125   1.360       .  A
N112        N140   1.310       .  A
N112        N515   1.310   1_554  A
N112       Co130   2.027       .  S
H113        C136   1.079       .  S
H114        C131   1.081       .  S
N115        N514   1.328   1_554  A
N116       Co130   2.030       .  S
N117        N129   1.321       .  A
N117        N133   1.317       .  A
N117       Co126   2.032       .  S
C118        C537   1.450       .  S
C118       C2259   1.453       .  S
C118        N122   1.348       .  A
C119        C543   1.443       .  S
C119        H123   1.075       .  S
N120        C131   1.330       .  A
N120       Co130   2.024       .  S
C124        C373   1.418       .  S
C124        C541   1.448   1_554  S
C124        N140   1.337       .  A
Co126      Cl542   2.455       .  S
N127        C138   1.338       .  A
C128        C262   1.467       .  S
C128        N504   1.349   1_554  A
Co130      Cl137   2.438       .  S
C132        C523   1.450       .  S
C136        C529   1.448       .  S
Cl137      Co498   2.438   1_554  S
Cl137      Co531   2.455   1_554  S
C138        C177   1.417       .  S
C138        C524   1.443   1_554  S
C141        C178   1.489       .  S
C141        N159   1.331       .  A
N142        N159   1.321       .  A
N142        N164   1.318       .  A
N142       Co179   2.027       .  S
C143        C181   1.457       .  S
C143        N168   1.341       .  A
C143        H188   1.081       .  S
H144        C185   1.081       .  S
C145        C149   1.432       .  S
C145        N169   1.334       .  A
C145        H174   1.081       .  S
Co146       N164   2.170       .  S
Co146       N154   2.114       .  S
Co146       N186   2.165       .  S
Co146       N162   2.121       .  S
Co146      Cl595   2.444       .  S
N147        C185   1.344       .  A
N147        N559   1.329   1_554  A
N147       Co148   2.112       .  S
Co148       N151   2.177       .  S
Co148       N168   2.107       .  S
Co148       N155   2.180       .  S
Co148      Cl190   2.446       .  S
C149        N187   1.374       .  A
N150        N180   1.310       .  A
N150        N562   1.309   1_554  A
N150       Co183   2.015       .  S
N151        N169   1.314       .  A
N151        N187   1.340       .  A
N152        C586   1.354       .  A
N152        N162   1.331       .  A
H153        C178   1.081       .  S
N154        N175   1.328       .  A
N154        N552   1.329       .  A
N155        N173   1.314       .  A
N155        N160   1.340       .  A
C156        C184   1.429       .  S
C156        N160   1.374       .  A
N157        C172   1.329       .  A
N157        N555   1.309       .  A
N157       Co179   2.026       .  S
C158        C161   1.490       .  S
C158        N186   1.360       .  A
C158        H192   1.082       .  S
C161        N182   1.328       .  A
N162        N573   1.329       .  A
N163        C189   1.325       .  A
N163        N570   1.309       .  A
N163       Co179   2.026       .  S
N164        C178   1.359       .  A
N165        N193   1.313       .  A
N165        N568   1.309   1_554  A
N165       Co183   2.026       .  S
H166        C189   1.075       .  S
H167        C184   1.081       .  S
N168        N567   1.329   1_554  A
N169       Co183   2.026       .  S
N170        N182   1.319       .  A
N170        N186   1.317       .  A
N170       Co179   2.026       .  S
C171        C185   1.460       .  S
C171       C1470   1.477   1_545  S
C171        N580   1.351   1_554  A
C172        C596   1.445       .  S
C172        H176   1.079       .  S
N173        C184   1.332       .  A
N173       Co183   2.018       .  S
N175        C576   1.351       .  A
C177        C594   1.442   1_554  S
C177        N193   1.339       .  A
Co179      Cl595   2.453       .  S
N180        C191   1.336       .  A
C181       C1950   1.479       .  S
C181        N557   1.354   1_554  A
Co183      Cl190   2.441       .  S
C189        C582   1.442       .  S
Cl190      Co551   2.444   1_554  S
Cl190      Co584   2.453   1_554  S
C191        C353   1.412       .  S
C191        C577   1.445   1_554  S
C194        C231   1.478       .  S
C194        N212   1.336       .  A
N195        N212   1.323       .  A
N195        N217   1.317       .  A
N195       Co232   2.040       .  S
C196        C234   1.450       .  S
C196        N221   1.335       .  A
C196        H241   1.081       .  S
H197        C238   1.081       .  S
C198        C202   1.436       .  S
C198        N222   1.333       .  A
C198        H227   1.081       .  S
Co199       N217   2.136       .  S
Co199       N207   2.086       .  S
Co199       N239   2.130       .  S
Co199       N215   2.095       .  S
Co199      Cl648   2.430       .  S
N200        C238   1.338       .  A
N200        N612   1.327   1_554  A
N200       Co201   2.089       .  S
Co201       N204   2.152       .  S
Co201       N221   2.085       .  S
Co201       N208   2.154       .  S
Co201      Cl243   2.440       .  S
C202        N240   1.369       .  A
N203        N233   1.310       .  A
N203        N615   1.311   1_554  A
N203       Co236   2.025       .  S
N204        N222   1.314       .  A
N204        N240   1.338       .  A
N205        C639   1.347       .  A
N205        N215   1.325       .  A
H206        C231   1.081       .  S
N207        N228   1.322       .  A
N207        N605   1.327       .  A
N208        N226   1.314       .  A
N208        N213   1.338       .  A
C209        C237   1.434       .  S
C209        N213   1.369       .  A
N210        C225   1.330       .  A
N210        N608   1.311       .  A
N210       Co232   2.033       .  S
C211        C214   1.478       .  S
C211        N239   1.352       .  A
C211        H245   1.082       .  S
C214        N235   1.334       .  A
N215        N626   1.327       .  A
N216        C242   1.326       .  A
N216        N623   1.311       .  A
N216       Co232   2.029       .  S
N217        C231   1.352       .  A
N218        N246   1.313       .  A
N218        N621   1.311   1_554  A
N218       Co236   2.035       .  S
H219        C242   1.078       .  S
H220        C237   1.081       .  S
N221        N620   1.327   1_554  A
N222       Co236   2.034       .  S
N223        N235   1.322       .  A
N223        N239   1.316       .  A
N223       Co232   2.042       .  S
C224        C238   1.453       .  S
C224       C1171   1.450       .  S
C224        N633   1.344   1_554  A
C225        C649   1.448       .  S
C225        H229   1.080       .  S
N226        C237   1.331       .  A
N226       Co236   2.026       .  S
N228        C629   1.344       .  A
C230        C350   1.419       .  S
C230        C647   1.445   1_554  S
C230        N246   1.339       .  A
Co232      Cl648   2.457       .  S
N233        C244   1.336       .  A
C234       C2143   1.453   1_455  S
C234        N610   1.347   1_554  A
Co236      Cl243   2.439       .  S
C242        C635   1.445       .  S
Cl243      Co604   2.430   1_554  S
Cl243      Co637   2.457   1_554  S
C244        C247   1.415       .  S
C244        C630   1.448   1_554  S
C247        C284   1.448       .  S
C247        N670   1.336   1_554  A
N248        N265   1.311       .  A
N248        N675   1.309       .  A
N248       Co285   2.019       .  S
C249        C287   1.489       .  S
C249        N274   1.360       .  A
C249        H294   1.081       .  S
H250        C291   1.081       .  S
C251        C255   1.461       .  S
C251        N275   1.346       .  A
C251        H280   1.081       .  S
Co252       N270   2.032       .  S
Co252       N260   2.035       .  S
Co252       N292   2.033       .  S
Co252       N268   2.036       .  S
Co252      Cl296   2.462       .  S
N253        C291   1.359       .  A
N253        N260   1.317       .  A
N253       Co254   2.154       .  S
Co254       N257   2.108       .  S
Co254       N274   2.165       .  S
Co254       N261   2.104       .  S
Co254      Cl296   2.435       .  S
C255       C1386   1.477       .  S
C255        N698   1.350       .  A
N256        N263   1.315       .  A
N256        N286   1.334       .  A
N256       Co289   2.148       .  S
N257        N293   1.327       .  A
N257        N680   1.328   1_554  A
N258        C287   1.332       .  A
N258        N268   1.321       .  A
H259        C284   1.080       .  S
N260        N281   1.319       .  A
N261        N266   1.325       .  A
N261        N684   1.328   1_554  A
C262        C695   1.457   1_554  S
C262        N266   1.349       .  A
N263        C278   1.335       .  A
N263       Co285   2.031       .  S
C264        C267   1.447       .  S
C264        N292   1.330       .  A
C264        H298   1.079       .  S
N265        C652   1.336       .  A
C267        C336   1.415       .  S
C267        N693   1.336   1_554  A
N268        N274   1.318       .  A
N269        C295   1.333       .  A
N269        N271   1.314       .  A
N269       Co285   2.019       .  S
N270        C284   1.329       .  A
N270        N653   1.309   1_554  A
N271        N299   1.339       .  A
N271       Co289   2.175       .  S
H272        C295   1.081       .  S
H273        C290   1.082       .  S
N275        N662   1.328       .  A
N275       Co289   2.113       .  S
N276        N288   1.311       .  A
N276        N697   1.310       .  A
N276       Co285   2.027       .  S
C277        C291   1.484       .  S
C277        N281   1.333       .  A
C278        C297   1.436       .  S
C278        H282   1.081       .  S
N279        C290   1.342       .  A
N279        N666   1.328       .  A
N279       Co289   2.101       .  S
C283        C295   1.428       .  S
C283        N299   1.374       .  A
Co285      Cl701   2.427       .  S
N286        C297   1.366       .  A
N288        C672   1.336       .  A
Co289      Cl701   2.453       .  S
C290        C667   1.457       .  S
N292        N681   1.310   1_554  A
N293        C660   1.350       .  A
Cl296      Co690   2.427   1_554  S
Cl296      Co694   2.453   1_554  S
C300        C337   1.479       .  S
C300        N318   1.333       .  A
N301        N318   1.322       .  A
N301        N323   1.317       .  A
N301       Co338   2.038       .  S
C302        C340   1.459       .  S
C302        N327   1.343       .  A
C302        H347   1.081       .  S
H303        C344   1.081       .  S
C304        C308   1.432       .  S
C304        N328   1.331       .  A
C304        H333   1.081       .  S
Co305       N323   2.139       .  S
Co305       N313   2.120       .  S
Co305       N345   2.169       .  S
Co305       N321   2.099       .  S
Co305      Cl754   2.441       .  S
N306        C344   1.341       .  A
N306        N718   1.328   1_554  A
N306       Co307   2.103       .  S
Co307       N310   2.166       .  S
Co307       N327   2.106       .  S
Co307       N314   2.175       .  S
Co307      Cl349   2.447       .  S
C308        N346   1.371       .  A
N309        N339   1.314       .  A
N309        N721   1.309   1_554  A
N309       Co342   2.033       .  S
N310        N328   1.315       .  A
N310        N346   1.339       .  A
N311        C745   1.348       .  A
N311        N321   1.325       .  A
H312        C337   1.081       .  S
N313        N334   1.331       .  A
N313        N711   1.328       .  A
N314        N332   1.315       .  A
N314        N319   1.340       .  A
C315        C343   1.431       .  S
C315        N319   1.374       .  A
N316        C331   1.325       .  A
N316        N714   1.309       .  A
N316       Co338   2.020       .  S
C317        C320   1.490       .  S
C317        N345   1.360       .  A
C317        H351   1.082       .  S
C320        N341   1.329       .  A
N321        N732   1.328       .  A
N322        C348   1.330       .  A
N322        N729   1.310       .  A
N322       Co338   2.037       .  S
N323        C337   1.352       .  A
N324        N352   1.311       .  A
N324        N727   1.310   1_554  A
N324       Co342   2.023       .  S
H325        C348   1.078       .  S
H326        C343   1.081       .  S
N327        N726   1.328   1_554  A
N328       Co342   2.023       .  S
N329        N341   1.320       .  A
N329        N345   1.318       .  A
N329       Co338   2.025       .  S
C330        C344   1.457       .  S
C330       C1801   1.479   1_455  S
C330        N739   1.354   1_554  A
C331        C755   1.443       .  S
C331        H335   1.078       .  S
N332        C343   1.334       .  A
N332       Co342   2.028       .  S
N334        C735   1.354       .  A
C336        C753   1.447   1_554  S
C336        N352   1.336       .  A
Co338      Cl754   2.455       .  S
N339        C350   1.340       .  A
C340        C368   1.467       .  S
C340        N716   1.348   1_554  A
Co342      Cl349   2.437       .  S
C348        C741   1.447       .  S
Cl349      Co710   2.441   1_554  S
Cl349      Co743   2.455   1_554  S
C350        C736   1.443   1_554  S
C353        C390   1.445       .  S
C353        N776   1.336   1_554  A
N354        N371   1.310       .  A
N354        N781   1.310       .  A
N354       Co391   2.022       .  S
C355        C393   1.483       .  S
C355        N380   1.358       .  A
C355        H400   1.081       .  S
H356        C397   1.081       .  S
C357        C766   1.453       .  S
C357        N381   1.338       .  A
C357        H386   1.082       .  S
Co358       N376   2.027       .  S
Co358       N366   2.042       .  S
Co358       N398   2.036       .  S
Co358       N374   2.030       .  S
Co358      Cl402   2.470       .  S
N359        C397   1.359       .  A
N359        N366   1.316       .  A
N359       Co360   2.160       .  S
Co360       N363   2.089       .  S
Co360       N380   2.144       .  S
Co360       N367   2.101       .  S
Co360      Cl402   2.424       .  S
C361       C1034   1.450   1_545  S
C361        C762   1.453   1_554  S
C361        N399   1.344       .  A
N362        N369   1.314       .  A
N362        N392   1.339       .  A
N362       Co395   2.172       .  S
N363        N399   1.322       .  A
N363        N786   1.329   1_554  A
N364        C393   1.332       .  A
N364        N374   1.318       .  A
H365        C390   1.078       .  S
N366        N387   1.323       .  A
N367        N372   1.325       .  A
N367        N790   1.329   1_554  A
C368        C801   1.458   1_554  S
C368        N372   1.347       .  A
N369        C384   1.336       .  A
N369       Co391   2.028       .  S
C370        C373   1.449       .  S
C370        N398   1.330       .  A
C370        H404   1.079       .  S
N371        C758   1.336       .  A
C373        N799   1.337   1_554  A
N374        N380   1.315       .  A
N375        C401   1.333       .  A
N375        N377   1.313       .  A
N375       Co391   2.024       .  S
N376        C390   1.329       .  A
N376        N759   1.310   1_554  A
N377        N405   1.334       .  A
N377       Co395   2.142       .  S
H378        C401   1.081       .  S
H379        C396   1.081       .  S
N381        N768   1.329       .  A
N381       Co395   2.092       .  S
N382        N394   1.311       .  A
N382        N803   1.310       .  A
N382       Co391   2.025       .  S
C383        C397   1.487       .  S
C383        N387   1.334       .  A
C384        C403   1.432       .  S
C384        H388   1.081       .  S
N385        C396   1.343       .  A
N385        N772   1.329       .  A
N385       Co395   2.110       .  S
C389        C401   1.434       .  S
C389        N405   1.366       .  A
Co391      Cl807   2.431       .  S
N392        C403   1.374       .  A
N394        C778   1.337       .  A
Co395      Cl807   2.446       .  S
C396        C773   1.458       .  S
N398        N787   1.310   1_554  A
Cl402      Co796   2.431   1_554  S
Cl402      Co800   2.446   1_554  S
O406        C414   1.308       .  A
O406       Co426   2.132       .  S
O407        C415   1.268       .  A
O407      Co1237   2.041       .  S
O408        C416   1.241       .  A
O408       Co428   1.980       .  S
O409        C417   1.255       .  A
O409      Co1239   1.895       .  S
O410        C416   1.267       .  A
O410      Co1237   2.030       .  S
O411        C417   1.307       .  A
O411       Co426   2.120       .  S
O412        C415   1.239       .  A
O412      Co1239   1.972       .  S
O413        C414   1.252       .  A
O413       Co428   1.887       .  S
C414        C599   1.476       .  S
C415        C682   1.483       .  S
C416        C607   1.484       .  S
C417        C702   1.475       .  S
O418        C431   1.280       .  A
O418      Co1236   2.074   1_545  S
O419        C432   1.288       .  A
O419       Co427   2.058   1_545  S
O420        C433   1.263       .  A
O420      Co1238   1.961   1_545  S
O421        C434   1.288       .  A
O421       Co429   2.032   1_545  S
O422        C434   1.287       .  A
O422       Co427   2.047   1_545  S
O423        C433   1.281       .  A
O423      Co1236   2.070   1_545  S
O424        C431   1.259       .  A
O424       Co429   1.954   1_545  S
O425        C432   1.284       .  A
O425      Co1238   2.020   1_545  S
Co426      O1228   2.074       .  S
Co426      O1233   2.070       .  S
Co426       O430   2.214       .  S
Co427      O1217   2.041       .  S
Co427      O1220   2.030       .  S
Co427      O1240   2.087   1_565  S
Co428      O1230   1.961       .  S
Co428      O1235   2.020       .  S
Co428       O430   1.982       .  S
Co429      O1219   1.895       .  S
Co429      O1222   1.972       .  S
Co429      O1240   1.980   1_565  S
O430      Co1237   2.087       .  S
O430      Co1239   1.980       .  S
C431        C546   1.485       .  S
C432        C788   1.490       .  S
C433        C808   1.486       .  S
C434        C554   1.488       .  S
O435        C443   1.282       .  A
O435      Co2075   2.080       .  S
O436        C444   1.286       .  A
O436      Co2076   2.046       .  S
O437        C445   1.285       .  A
O437      Co2077   2.025       .  S
O438        C446   1.260       .  A
O438      Co2078   1.952       .  S
O439        C445   1.287       .  A
O439      Co2076   2.052       .  S
O440        C446   1.282       .  A
O440      Co2075   2.073       .  S
O441        C444   1.285       .  A
O441      Co2078   2.024       .  S
O442        C443   1.261       .  A
O442      Co2077   1.956       .  S
C443        C493   1.489       .  S
C444        C561   1.486       .  S
C445        C501   1.489       .  S
C446        C566   1.483       .  S
O447        C460   1.310       .  A
O447       Co455   2.135       .  S
O448        C461   1.267       .  A
O448       Co456   2.028       .  S
O449        C462   1.252       .  A
O449       Co457   1.886       .  S
O450        C463   1.239       .  A
O450       Co458   1.977       .  S
O451        C463   1.268       .  A
O451       Co456   2.033       .  S
O452        C462   1.309       .  A
O452       Co455   2.131       .  S
O453        C460   1.251       .  A
O453       Co458   1.883       .  S
O454        C461   1.240       .  A
O454       Co457   1.977       .  S
Co455      O2055   2.080   1_455  S
Co455      O2060   2.073   1_455  S
Co455       O459   2.217   1_455  S
Co456      O2056   2.046   1_455  S
Co456      O2059   2.052   1_455  S
Co456       O459   2.085   1_455  S
Co457      O2057   2.025   1_455  S
Co457      O2062   1.956   1_455  S
Co457       O459   1.978   1_455  S
Co458      O2058   1.952   1_455  S
Co458      O2061   2.024   1_455  S
Co458       O459   1.978   1_455  S
C460        C705   1.475       .  S
C461        C614   1.481       .  S
C462        C619   1.475       .  S
C463        C713   1.483       .  S
O464        C472   1.306       .  A
O464       Co484   2.116       .  S
O465        C473   1.268       .  A
O465       Co485   2.029       .  S
O466        C474   1.237       .  A
O466       Co486   1.968       .  S
O467        C475   1.251       .  A
O467       Co487   1.887       .  S
O468        C474   1.268       .  A
O468       Co485   2.039       .  S
O469        C475   1.307       .  A
O469       Co484   2.129       .  S
O470        C473   1.240       .  A
O470       Co487   1.977       .  S
O471        C472   1.254       .  A
O471       Co486   1.895       .  S
C472        C794   1.472       .  S
C473        C508   1.480       .  S
C474        C798   1.478       .  S
C475        C513   1.474       .  S
O476        C489   1.281       .  A
O476       Co484   2.068       .  S
O477        C490   1.288       .  A
O477       Co485   2.049       .  S
O478        C491   1.259       .  A
O478       Co486   1.950       .  S
O479        C492   1.284       .  A
O479       Co487   2.019       .  S
O480        C492   1.288       .  A
O480       Co485   2.057       .  S
O481        C491   1.281       .  A
O481       Co484   2.076       .  S
O482        C489   1.261       .  A
O482       Co487   1.955       .  S
O483        C490   1.287       .  A
O483       Co486   2.030       .  S
Co484       O488   2.211       .  S
Co485       O488   2.085       .  S
Co486       O488   1.980       .  S
Co487       O488   1.982       .  S
C489        C688   1.482       .  S
C490        C720   1.488       .  S
C491        C725   1.484       .  S
C492        C692   1.489       .  S
C493        C530   1.490       .  S
C493        N511   1.331       .  A
N494        N511   1.322       .  A
N494        N516   1.317       .  A
N494       Co531   2.039       .  S
C495        C533   1.456       .  S
C495        N520   1.342       .  A
C495        H540   1.081       .  S
H496        C537   1.081       .  S
C497        C501   1.433       .  S
C497        N521   1.335       .  A
C497        H526   1.081       .  S
Co498       N516   2.164       .  S
Co498       N506   2.095       .  S
Co498       N538   2.141       .  S
Co498       N514   2.106       .  S
N499        C537   1.335       .  A
N499       Co500   2.084       .  S
Co500       N503   2.175       .  S
Co500       N520   2.099       .  S
Co500       N507   2.156       .  S
Co500      Cl542   2.445       .  S
C501        N539   1.373       .  A
N502        N532   1.313       .  A
N502       Co535   2.023       .  S
N503        N521   1.315       .  A
N503        N539   1.340       .  A
N504        N514   1.326       .  A
H505        C530   1.082       .  S
N506        N527   1.325       .  A
N507        N525   1.314       .  A
N507        N512   1.339       .  A
C508        C536   1.431       .  S
C508        N512   1.370       .  A
N509        C524   1.325       .  A
N509       Co531   2.030       .  S
C510        C513   1.479       .  S
C510        N538   1.352       .  A
C510        H544   1.081       .  S
C513        N534   1.333       .  A
N515        C541   1.330       .  A
N515       Co531   2.031       .  S
N516        C530   1.360       .  A
N517        N545   1.310       .  A
N517       Co535   2.027       .  S
H518        C541   1.079       .  S
H519        C536   1.081       .  S
N521       Co535   2.030       .  S
N522        N534   1.321       .  A
N522        N538   1.317       .  A
N522       Co531   2.032       .  S
C523       C1854   1.453       .  S
C523        N527   1.348   1_554  A
C524        H528   1.075       .  S
N525        C536   1.330       .  A
N525       Co535   2.024       .  S
C529        C778   1.418       .  S
C529        N545   1.337       .  A
N532        C543   1.338       .  A
C533        C667   1.467       .  S
Co535      Cl542   2.438       .  S
C543        C582   1.417       .  S
C546        C583   1.489       .  S
C546        N564   1.331       .  A
N547        N564   1.321       .  A
N547        N569   1.318       .  A
N547       Co584   2.027       .  S
C548        C586   1.457       .  S
C548        N573   1.341       .  A
C548        H593   1.081       .  S
H549        C590   1.081       .  S
C550        C554   1.432       .  S
C550        N574   1.334       .  A
C550        H579   1.081       .  S
Co551       N569   2.170       .  S
Co551       N559   2.114       .  S
Co551       N591   2.165       .  S
Co551       N567   2.121       .  S
N552        C590   1.344       .  A
N552       Co553   2.112       .  S
Co553       N556   2.177       .  S
Co553       N573   2.107       .  S
Co553       N560   2.180       .  S
Co553      Cl595   2.446       .  S
C554        N592   1.374       .  A
N555        N585   1.310       .  A
N555       Co588   2.015       .  S
N556        N574   1.314       .  A
N556        N592   1.340       .  A
N557        N567   1.331       .  A
H558        C583   1.081       .  S
N559        N580   1.328       .  A
N560        N578   1.314       .  A
N560        N565   1.340       .  A
C561        C589   1.429       .  S
C561        N565   1.374       .  A
N562        C577   1.329       .  A
N562       Co584   2.026       .  S
C563        C566   1.490       .  S
C563        N591   1.360       .  A
C563        H597   1.082       .  S
C566        N587   1.328       .  A
N568        C594   1.325       .  A
N568       Co584   2.026       .  S
N569        C583   1.359       .  A
N570        N598   1.313       .  A
N570       Co588   2.026       .  S
H571        C594   1.075       .  S
H572        C589   1.081       .  S
N574       Co588   2.026       .  S
N575        N587   1.319       .  A
N575        N591   1.317       .  A
N575       Co584   2.026       .  S
C576        C590   1.460       .  S
C576       C1065   1.477   1_545  S
C577        H581   1.079       .  S
N578        C589   1.332       .  A
N578       Co588   2.018       .  S
C582        N598   1.339       .  A
N585        C596   1.336       .  A
C586       C2355   1.479       .  S
Co588      Cl595   2.441       .  S
C596        C758   1.412       .  S
C599        C636   1.478       .  S
C599        N617   1.336       .  A
N600        N617   1.323       .  A
N600        N622   1.317       .  A
N600       Co637   2.040       .  S
C601        C639   1.450       .  S
C601        N626   1.335       .  A
C601        H646   1.081       .  S
H602        C643   1.081       .  S
C603        C607   1.436       .  S
C603        N627   1.333       .  A
C603        H632   1.081       .  S
Co604       N622   2.136       .  S
Co604       N612   2.086       .  S
Co604       N644   2.130       .  S
Co604       N620   2.095       .  S
N605        C643   1.338       .  A
N605       Co606   2.089       .  S
Co606       N609   2.152       .  S
Co606       N626   2.085       .  S
Co606       N613   2.154       .  S
Co606      Cl648   2.440       .  S
C607        N645   1.369       .  A
N608        N638   1.310       .  A
N608       Co641   2.025       .  S
N609        N627   1.314       .  A
N609        N645   1.338       .  A
N610        N620   1.325       .  A
H611        C636   1.081       .  S
N612        N633   1.322       .  A
N613        N631   1.314       .  A
N613        N618   1.338       .  A
C614        C642   1.434       .  S
C614        N618   1.369       .  A
N615        C630   1.330       .  A
N615       Co637   2.033       .  S
C616        C619   1.478       .  S
C616        N644   1.352       .  A
C616        H650   1.082       .  S
C619        N640   1.334       .  A
N621        C647   1.326       .  A
N621       Co637   2.029       .  S
N622        C636   1.352       .  A
N623        N651   1.313       .  A
N623       Co641   2.035       .  S
H624        C647   1.078       .  S
H625        C642   1.081       .  S
N627       Co641   2.034       .  S
N628        N640   1.322       .  A
N628        N644   1.316       .  A
N628       Co637   2.042       .  S
C629        C643   1.453       .  S
C629       C1576   1.450       .  S
C630        H634   1.080       .  S
N631        C642   1.331       .  A
N631       Co641   2.026       .  S
C635        C755   1.419       .  S
C635        N651   1.339       .  A
N638        C649   1.336       .  A
C639       C1738   1.453   1_455  S
Co641      Cl648   2.439       .  S
C649        C652   1.415       .  S
C652        C689   1.448       .  S
N653        N670   1.311       .  A
N653       Co690   2.019       .  S
C654        C692   1.489       .  S
C654        N679   1.360       .  A
C654        H699   1.081       .  S
H655        C696   1.081       .  S
C656        C660   1.461   1_556  S
C656        N680   1.346       .  A
C656        H685   1.081       .  S
Co657       N675   2.032       .  S
Co657       N665   2.035       .  S
Co657       N697   2.033       .  S
Co657       N673   2.036       .  S
Co657      Cl701   2.462       .  S
N658        C696   1.359       .  A
N658        N665   1.317       .  A
N658       Co659   2.154       .  S
Co659       N662   2.108       .  S
Co659       N679   2.165       .  S
Co659       N666   2.104       .  S
Co659      Cl701   2.435       .  S
C660        C981   1.477       .  S
N661        N668   1.315       .  A
N661        N691   1.334       .  A
N661       Co694   2.148       .  S
N662        N698   1.327       .  A
N663        C692   1.332       .  A
N663        N673   1.321       .  A
H664        C689   1.080       .  S
N665        N686   1.319       .  A
N666        N671   1.325       .  A
C667        N671   1.349       .  A
N668        C683   1.335       .  A
N668       Co690   2.031       .  S
C669        C672   1.447       .  S
C669        N697   1.330       .  A
C669        H703   1.079       .  S
C672        C741   1.415       .  S
N673        N679   1.318       .  A
N674        C700   1.333       .  A
N674        N676   1.314       .  A
N674       Co690   2.019       .  S
N675        C689   1.329       .  A
N676        N704   1.339       .  A
N676       Co694   2.175       .  S
H677        C700   1.081       .  S
H678        C695   1.082       .  S
N680       Co694   2.113       .  S
N681        N693   1.311       .  A
N681       Co690   2.027       .  S
C682        C696   1.484       .  S
C682        N686   1.333       .  A
C683        C702   1.436       .  S
C683        H687   1.081       .  S
N684        C695   1.342       .  A
N684       Co694   2.101       .  S
C688        C700   1.428       .  S
C688        N704   1.374       .  A
N691        C702   1.366       .  A
C705        C742   1.479       .  S
C705        N723   1.333       .  A
N706        N723   1.322       .  A
N706        N728   1.317       .  A
N706       Co743   2.038       .  S
C707        C745   1.459       .  S
C707        N732   1.343       .  A
C707        H752   1.081       .  S
H708        C749   1.081       .  S
C709        C713   1.432       .  S
C709        N733   1.331       .  A
C709        H738   1.081       .  S
Co710       N728   2.139       .  S
Co710       N718   2.120       .  S
Co710       N750   2.169       .  S
Co710       N726   2.099       .  S
N711        C749   1.341       .  A
N711       Co712   2.103       .  S
Co712       N715   2.166       .  S
Co712       N732   2.106       .  S
Co712       N719   2.175       .  S
Co712      Cl754   2.447       .  S
C713        N751   1.371       .  A
N714        N744   1.314       .  A
N714       Co747   2.033       .  S
N715        N733   1.315       .  A
N715        N751   1.339       .  A
N716        N726   1.325       .  A
H717        C742   1.081       .  S
N718        N739   1.331       .  A
N719        N737   1.315       .  A
N719        N724   1.340       .  A
C720        C748   1.431       .  S
C720        N724   1.374       .  A
N721        C736   1.325       .  A
N721       Co743   2.020       .  S
C722        C725   1.490       .  S
C722        N750   1.360       .  A
C722        H756   1.082       .  S
C725        N746   1.329       .  A
N727        C753   1.330       .  A
N727       Co743   2.037       .  S
N728        C742   1.352       .  A
N729        N757   1.311       .  A
N729       Co747   2.023       .  S
H730        C753   1.078       .  S
H731        C748   1.081       .  S
N733       Co747   2.023       .  S
N734        N746   1.320       .  A
N734        N750   1.318       .  A
N734       Co743   2.025       .  S
C735       C2206   1.479   1_455  S
C735        C749   1.457       .  S
C736        H740   1.078       .  S
N737        C748   1.334       .  A
N737       Co747   2.028       .  S
C741        N757   1.336       .  A
N744        C755   1.340       .  A
C745        C773   1.467       .  S
Co747      Cl754   2.437       .  S
C758        C795   1.445       .  S
N759        N776   1.310       .  A
N759       Co796   2.022       .  S
C760        C798   1.483       .  S
C760        N785   1.358       .  A
C760        H805   1.081       .  S
H761        C802   1.081       .  S
C762        N786   1.338       .  A
C762        H791   1.082       .  S
Co763       N781   2.027       .  S
Co763       N771   2.042       .  S
Co763       N803   2.036       .  S
Co763       N779   2.030       .  S
Co763      Cl807   2.470       .  S
N764        C802   1.359       .  A
N764        N771   1.316       .  A
N764       Co765   2.160       .  S
Co765       N768   2.089       .  S
Co765       N785   2.144       .  S
Co765       N772   2.101       .  S
Co765      Cl807   2.424       .  S
C766       C1439   1.450   1_545  S
C766        N804   1.344       .  A
N767        N774   1.314       .  A
N767        N797   1.339       .  A
N767       Co800   2.172       .  S
N768        N804   1.322       .  A
N769        C798   1.332       .  A
N769        N779   1.318       .  A
H770        C795   1.078       .  S
N771        N792   1.323       .  A
N772        N777   1.325       .  A
C773        N777   1.347       .  A
N774        C789   1.336       .  A
N774       Co796   2.028       .  S
C775        C778   1.449       .  S
C775        N803   1.330       .  A
C775        H809   1.079       .  S
N779        N785   1.315       .  A
N780        C806   1.333       .  A
N780        N782   1.313       .  A
N780       Co796   2.024       .  S
N781        C795   1.329       .  A
N782        N810   1.334       .  A
N782       Co800   2.142       .  S
H783        C806   1.081       .  S
H784        C801   1.081       .  S
N786       Co800   2.092       .  S
N787        N799   1.311       .  A
N787       Co796   2.025       .  S
C788        C802   1.487       .  S
C788        N792   1.334       .  A
C789        C808   1.432       .  S
C789        H793   1.081       .  S
N790        C801   1.343       .  A
N790       Co800   2.110       .  S
C794        C806   1.434       .  S
C794        N810   1.366       .  A
N797        C808   1.374       .  A
O811        C819   1.308       .  A
O811       Co831   2.132       .  S
O812        C820   1.268       .  A
O813        C821   1.241       .  A
O813       Co833   1.980       .  S
O814        C822   1.255       .  A
O815        C821   1.267       .  A
O816        C822   1.307       .  A
O816       Co831   2.120       .  S
O817        C820   1.239       .  A
O818        C819   1.252       .  A
O818       Co833   1.887       .  S
C819       C1004   1.476       .  S
C820       C1087   1.483       .  S
C821       C1012   1.484       .  S
C822       C1107   1.475       .  S
O823        C836   1.280       .  A
O824        C837   1.288       .  A
O824       Co832   2.058       .  S
O825        C838   1.263       .  A
O826        C839   1.288       .  A
O826       Co834   2.032       .  S
O827        C839   1.287       .  A
O827       Co832   2.047       .  S
O828        C838   1.281       .  A
O829        C836   1.259       .  A
O829       Co834   1.954       .  S
O830        C837   1.284       .  A
Co831       O835   2.214   1_565  S
Co833       O835   1.982   1_565  S
C836        C951   1.485       .  S
C837       C1193   1.490       .  S
C838       C1213   1.486       .  S
C839        C959   1.488       .  S
O840        C848   1.282       .  A
O840      Co2480   2.080       .  S
O841        C849   1.286       .  A
O841      Co2481   2.046       .  S
O842        C850   1.285       .  A
O842      Co2482   2.025       .  S
O843        C851   1.260       .  A
O843      Co2483   1.952       .  S
O844        C850   1.287       .  A
O844      Co2481   2.052       .  S
O845        C851   1.282       .  A
O845      Co2480   2.073       .  S
O846        C849   1.285       .  A
O846      Co2483   2.024       .  S
O847        C848   1.261       .  A
O847      Co2482   1.956       .  S
C848        C898   1.489       .  S
C849        C966   1.486       .  S
C850        C906   1.489       .  S
C851        C971   1.483       .  S
O852        C865   1.310       .  A
O852       Co860   2.135       .  S
O853        C866   1.267       .  A
O853       Co861   2.028       .  S
O854        C867   1.252       .  A
O854       Co862   1.886       .  S
O855        C868   1.239       .  A
O855       Co863   1.977       .  S
O856        C868   1.268       .  A
O856       Co861   2.033       .  S
O857        C867   1.309       .  A
O857       Co860   2.131       .  S
O858        C865   1.251       .  A
O858       Co863   1.883       .  S
O859        C866   1.240       .  A
O859       Co862   1.977       .  S
Co860      O2460   2.080   1_455  S
Co860      O2465   2.073   1_455  S
Co860       O864   2.217   1_455  S
Co861      O2461   2.046   1_455  S
Co861      O2464   2.052   1_455  S
Co861       O864   2.085   1_455  S
Co862      O2462   2.025   1_455  S
Co862      O2467   1.956   1_455  S
Co862       O864   1.978   1_455  S
Co863      O2463   1.952   1_455  S
Co863      O2466   2.024   1_455  S
Co863       O864   1.978   1_455  S
C865       C1110   1.475       .  S
C866       C1019   1.481       .  S
C867       C1024   1.475       .  S
C868       C1118   1.483       .  S
O869        C877   1.306       .  A
O869       Co889   2.116       .  S
O870        C878   1.268       .  A
O870       Co890   2.029       .  S
O871        C879   1.237       .  A
O871       Co891   1.968       .  S
O872        C880   1.251       .  A
O872       Co892   1.887       .  S
O873        C879   1.268       .  A
O873       Co890   2.039       .  S
O874        C880   1.307       .  A
O874       Co889   2.129       .  S
O875        C878   1.240       .  A
O875       Co892   1.977       .  S
O876        C877   1.254       .  A
O876       Co891   1.895       .  S
C877       C1199   1.472       .  S
C878        C913   1.480       .  S
C879       C1203   1.478       .  S
C880        C918   1.474       .  S
O881        C894   1.281       .  A
O881       Co889   2.068       .  S
O882        C895   1.288       .  A
O882       Co890   2.049       .  S
O883        C896   1.259       .  A
O883       Co891   1.950       .  S
O884        C897   1.284       .  A
O884       Co892   2.019       .  S
O885        C897   1.288       .  A
O885       Co890   2.057       .  S
O886        C896   1.281       .  A
O886       Co889   2.076       .  S
O887        C894   1.261       .  A
O887       Co892   1.955       .  S
O888        C895   1.287       .  A
O888       Co891   2.030       .  S
Co889       O893   2.211       .  S
Co890       O893   2.085       .  S
Co891       O893   1.980       .  S
Co892       O893   1.982       .  S
C894       C1093   1.482       .  S
C895       C1125   1.488       .  S
C896       C1130   1.484       .  S
C897       C1097   1.489       .  S
C898        C935   1.490       .  S
C898        N916   1.331       .  A
N899        N916   1.322       .  A
N899        N921   1.317       .  A
N899       Co936   2.039       .  S
C900        C938   1.456       .  S
C900        N925   1.342       .  A
C900        H945   1.081       .  S
H901        C942   1.081       .  S
C902        C906   1.433       .  S
C902        N926   1.335       .  A
C902        H931   1.081       .  S
Co903       N921   2.164       .  S
Co903       N911   2.095       .  S
Co903       N943   2.141       .  S
Co903       N919   2.106       .  S
Co903     Cl1352   2.438       .  S
N904        C942   1.335       .  A
N904       N1316   1.328   1_554  A
N904       Co905   2.084       .  S
Co905       N908   2.175       .  S
Co905       N925   2.099       .  S
Co905       N912   2.156       .  S
Co905      Cl947   2.445       .  S
C906        N944   1.373       .  A
N907       N1319   1.310   1_554  A
N907        N937   1.313       .  A
N907       Co940   2.023       .  S
N908        N926   1.315       .  A
N908        N944   1.340       .  A
N909       C1343   1.349       .  A
N909        N919   1.326       .  A
H910        C935   1.082       .  S
N911       N1309   1.328       .  A
N911        N932   1.325       .  A
N912        N930   1.314       .  A
N912        N917   1.339       .  A
C913        C941   1.431       .  S
C913        N917   1.370       .  A
N914        C929   1.325       .  A
N914       N1312   1.310       .  A
N914       Co936   2.030       .  S
C915        C918   1.479       .  S
C915        N943   1.352       .  A
C915        H949   1.081       .  S
C918        N939   1.333       .  A
N919       N1330   1.328       .  A
N920        C946   1.330       .  A
N920       N1327   1.310       .  A
N920       Co936   2.031       .  S
N921        C935   1.360       .  A
N922       N1325   1.310   1_554  A
N922        N950   1.310       .  A
N922       Co940   2.027       .  S
H923        C946   1.079       .  S
H924        C941   1.081       .  S
N925       N1324   1.328   1_554  A
N926       Co940   2.030       .  S
N927        N939   1.321       .  A
N927        N943   1.317       .  A
N927       Co936   2.032       .  S
C928       C1347   1.450       .  S
C928       C3069   1.453       .  S
C928        N932   1.348       .  A
C929       C1353   1.443       .  S
C929        H933   1.075       .  S
N930        C941   1.330       .  A
N930       Co940   2.024       .  S
C934       C1351   1.448   1_554  S
C934       C1183   1.418       .  S
C934        N950   1.337       .  A
Co936     Cl1352   2.455       .  S
N937        C948   1.338       .  A
C938       C1072   1.467       .  S
C938       N1314   1.349   1_554  A
Co940      Cl947   2.438       .  S
C942       C1333   1.450       .  S
C946       C1339   1.448       .  S
Cl947     Co1308   2.438   1_554  S
Cl947     Co1341   2.455   1_554  S
C948       C1334   1.443   1_554  S
C948        C987   1.417       .  S
C951        C988   1.489       .  S
C951        N969   1.331       .  A
N952        N969   1.321       .  A
N952        N974   1.318       .  A
N952       Co989   2.027       .  S
C953        C991   1.457       .  S
C953        N978   1.341       .  A
C953        H998   1.081       .  S
H954        C995   1.081       .  S
C955        C959   1.432       .  S
C955        N979   1.334       .  A
C955        H984   1.081       .  S
Co956       N974   2.170       .  S
Co956       N964   2.114       .  S
Co956       N996   2.165       .  S
Co956       N972   2.121       .  S
Co956     Cl1405   2.444       .  S
N957        C995   1.344       .  A
N957       N1369   1.329   1_554  A
N957       Co958   2.112       .  S
Co958       N961   2.177       .  S
Co958       N978   2.107       .  S
Co958       N965   2.180       .  S
Co958     Cl1000   2.446       .  S
C959        N997   1.374       .  A
N960       N1372   1.309   1_554  A
N960        N990   1.310       .  A
N960       Co993   2.015       .  S
N961        N979   1.314       .  A
N961        N997   1.340       .  A
N962       C1396   1.354       .  A
N962        N972   1.331       .  A
H963        C988   1.081       .  S
N964       N1362   1.329       .  A
N964        N985   1.328       .  A
N965        N983   1.314       .  A
N965        N970   1.340       .  A
C966        C994   1.429       .  S
C966        N970   1.374       .  A
N967        C982   1.329       .  A
N967       N1365   1.309       .  A
N967       Co989   2.026       .  S
C968        C971   1.490       .  S
C968        N996   1.360       .  A
C968       H1002   1.082       .  S
C971        N992   1.328       .  A
N972       N1383   1.329       .  A
N973        C999   1.325       .  A
N973       N1380   1.309       .  A
N973       Co989   2.026       .  S
N974        C988   1.359       .  A
N975       N1378   1.309   1_554  A
N975       N1003   1.313       .  A
N975       Co993   2.026       .  S
H976        C999   1.075       .  S
H977        C994   1.081       .  S
N978       N1377   1.329   1_554  A
N979       Co993   2.026       .  S
N980        N992   1.319       .  A
N980        N996   1.317       .  A
N980       Co989   2.026       .  S
C981        C995   1.460       .  S
C981       N1390   1.351   1_554  A
C982       C1406   1.445       .  S
C982        H986   1.079       .  S
N983        C994   1.332       .  A
N983       Co993   2.018       .  S
N985       C1386   1.351       .  A
C987       C1404   1.442   1_554  S
C987       N1003   1.339       .  A
Co989     Cl1405   2.453       .  S
N990       C1001   1.336       .  A
C991       C2760   1.479       .  S
C991       N1367   1.354   1_554  A
Co993     Cl1000   2.441       .  S
C999       C1392   1.442       .  S
Cl1000    Co1361   2.444   1_554  S
Cl1000    Co1394   2.453   1_554  S
C1001      C1387   1.445   1_554  S
C1001      C1163   1.412       .  S
C1004      C1041   1.478       .  S
C1004      N1022   1.336       .  A
N1005      N1022   1.323       .  A
N1005      N1027   1.317       .  A
N1005     Co1042   2.040       .  S
C1006      C1044   1.450       .  S
C1006      N1031   1.335       .  A
C1006      H1051   1.081       .  S
H1007      C1048   1.081       .  S
C1008      C1012   1.436       .  S
C1008      N1032   1.333       .  A
C1008      H1037   1.081       .  S
Co1009     N1027   2.136       .  S
Co1009     N1017   2.086       .  S
Co1009     N1049   2.130       .  S
Co1009     N1025   2.095       .  S
Co1009    Cl1458   2.430       .  S
N1010      C1048   1.338       .  A
N1010      N1422   1.327   1_554  A
N1010     Co1011   2.089       .  S
Co1011     N1014   2.152       .  S
Co1011     N1031   2.085       .  S
Co1011     N1018   2.154       .  S
Co1011    Cl1053   2.440       .  S
C1012      N1050   1.369       .  A
N1013      N1425   1.311   1_554  A
N1013      N1043   1.310       .  A
N1013     Co1046   2.025       .  S
N1014      N1032   1.314       .  A
N1014      N1050   1.338       .  A
N1015      C1449   1.347       .  A
N1015      N1025   1.325       .  A
H1016      C1041   1.081       .  S
N1017      N1415   1.327       .  A
N1017      N1038   1.322       .  A
N1018      N1036   1.314       .  A
N1018      N1023   1.338       .  A
C1019      C1047   1.434       .  S
C1019      N1023   1.369       .  A
N1020      C1035   1.330       .  A
N1020      N1418   1.311       .  A
N1020     Co1042   2.033       .  S
C1021      C1024   1.478       .  S
C1021      N1049   1.352       .  A
C1021      H1055   1.082       .  S
C1024      N1045   1.334       .  A
N1025      N1436   1.327       .  A
N1026      C1052   1.326       .  A
N1026      N1433   1.311       .  A
N1026     Co1042   2.029       .  S
N1027      C1041   1.352       .  A
N1028      N1431   1.311   1_554  A
N1028      N1056   1.313       .  A
N1028     Co1046   2.035       .  S
H1029      C1052   1.078       .  S
H1030      C1047   1.081       .  S
N1031      N1430   1.327   1_554  A
N1032     Co1046   2.034       .  S
N1033      N1045   1.322       .  A
N1033      N1049   1.316       .  A
N1033     Co1042   2.042       .  S
C1034      C1048   1.453       .  S
C1034      N1443   1.344   1_554  A
C1035      C1459   1.448       .  S
C1035      H1039   1.080       .  S
N1036      C1047   1.331       .  A
N1036     Co1046   2.026       .  S
N1038      C1439   1.344       .  A
C1040      C1457   1.445   1_554  S
C1040      C1160   1.419       .  S
C1040      N1056   1.339       .  A
Co1042    Cl1458   2.457       .  S
N1043      C1054   1.336       .  A
C1044      C2953   1.453   1_455  S
C1044      N1420   1.347   1_554  A
Co1046    Cl1053   2.439       .  S
C1052      C1445   1.445       .  S
Cl1053    Co1414   2.430   1_554  S
Cl1053    Co1447   2.457   1_554  S
C1054      C1440   1.448   1_554  S
C1054      C1057   1.415       .  S
C1057      C1094   1.448       .  S
C1057      N1480   1.336   1_554  A
N1058      N1075   1.311       .  A
N1058      N1485   1.309       .  A
N1058     Co1095   2.019       .  S
C1059      C1097   1.489       .  S
C1059      N1084   1.360       .  A
C1059      H1104   1.081       .  S
H1060      C1101   1.081       .  S
C1061      C1065   1.461       .  S
C1061      N1085   1.346       .  A
C1061      H1090   1.081       .  S
Co1062     N1080   2.032       .  S
Co1062     N1070   2.035       .  S
Co1062     N1102   2.033       .  S
Co1062     N1078   2.036       .  S
Co1062    Cl1106   2.462       .  S
N1063      C1101   1.359       .  A
N1063      N1070   1.317       .  A
N1063     Co1064   2.154       .  S
Co1064     N1067   2.108       .  S
Co1064     N1084   2.165       .  S
Co1064     N1071   2.104       .  S
Co1064    Cl1106   2.435       .  S
C1065      N1508   1.350       .  A
N1066      N1073   1.315       .  A
N1066      N1096   1.334       .  A
N1066     Co1099   2.148       .  S
N1067      N1490   1.328   1_554  A
N1067      N1103   1.327       .  A
N1068      C1097   1.332       .  A
N1068      N1078   1.321       .  A
H1069      C1094   1.080       .  S
N1070      N1091   1.319       .  A
N1071      N1494   1.328   1_554  A
N1071      N1076   1.325       .  A
C1072      C1505   1.457   1_554  S
C1072      N1076   1.349       .  A
N1073      C1088   1.335       .  A
N1073     Co1095   2.031       .  S
C1074      C1077   1.447       .  S
C1074      N1102   1.330       .  A
C1074      H1108   1.079       .  S
N1075      C1462   1.336       .  A
C1077      C1146   1.415       .  S
C1077      N1503   1.336   1_554  A
N1078      N1084   1.318       .  A
N1079      C1105   1.333       .  A
N1079      N1081   1.314       .  A
N1079     Co1095   2.019       .  S
N1080      C1094   1.329       .  A
N1080      N1463   1.309   1_554  A
N1081      N1109   1.339       .  A
N1081     Co1099   2.175       .  S
H1082      C1105   1.081       .  S
H1083      C1100   1.082       .  S
N1085      N1472   1.328       .  A
N1085     Co1099   2.113       .  S
N1086      N1098   1.311       .  A
N1086      N1507   1.310       .  A
N1086     Co1095   2.027       .  S
C1087      C1101   1.484       .  S
C1087      N1091   1.333       .  A
C1088      C1107   1.436       .  S
C1088      H1092   1.081       .  S
N1089      C1100   1.342       .  A
N1089      N1476   1.328       .  A
N1089     Co1099   2.101       .  S
C1093      C1105   1.428       .  S
C1093      N1109   1.374       .  A
Co1095    Cl1511   2.427       .  S
N1096      C1107   1.366       .  A
N1098      C1482   1.336       .  A
Co1099    Cl1511   2.453       .  S
C1100      C1477   1.457       .  S
N1102      N1491   1.310   1_554  A
N1103      C1470   1.350       .  A
Cl1106    Co1500   2.427   1_554  S
Cl1106    Co1504   2.453   1_554  S
C1110      C1147   1.479       .  S
C1110      N1128   1.333       .  A
N1111      N1128   1.322       .  A
N1111      N1133   1.317       .  A
N1111     Co1148   2.038       .  S
C1112      C1150   1.459       .  S
C1112      N1137   1.343       .  A
C1112      H1157   1.081       .  S
H1113      C1154   1.081       .  S
C1114      C1118   1.432       .  S
C1114      N1138   1.331       .  A
C1114      H1143   1.081       .  S
Co1115     N1133   2.139       .  S
Co1115     N1123   2.120       .  S
Co1115     N1155   2.169       .  S
Co1115     N1131   2.099       .  S
Co1115    Cl1564   2.441       .  S
N1116      C1154   1.341       .  A
N1116      N1528   1.328   1_554  A
N1116     Co1117   2.103       .  S
Co1117     N1120   2.166       .  S
Co1117     N1137   2.106       .  S
Co1117     N1124   2.175       .  S
Co1117    Cl1159   2.447       .  S
C1118      N1156   1.371       .  A
N1119      N1531   1.309   1_554  A
N1119      N1149   1.314       .  A
N1119     Co1152   2.033       .  S
N1120      N1138   1.315       .  A
N1120      N1156   1.339       .  A
N1121      C1555   1.348       .  A
N1121      N1131   1.325       .  A
H1122      C1147   1.081       .  S
N1123      N1521   1.328       .  A
N1123      N1144   1.331       .  A
N1124      N1142   1.315       .  A
N1124      N1129   1.340       .  A
C1125      C1153   1.431       .  S
C1125      N1129   1.374       .  A
N1126      C1141   1.325       .  A
N1126      N1524   1.309       .  A
N1126     Co1148   2.020       .  S
C1127      C1130   1.490       .  S
C1127      N1155   1.360       .  A
C1127      H1161   1.082       .  S
C1130      N1151   1.329       .  A
N1131      N1542   1.328       .  A
N1132      C1158   1.330       .  A
N1132      N1539   1.310       .  A
N1132     Co1148   2.037       .  S
N1133      C1147   1.352       .  A
N1134      N1537   1.310   1_554  A
N1134      N1162   1.311       .  A
N1134     Co1152   2.023       .  S
H1135      C1158   1.078       .  S
H1136      C1153   1.081       .  S
N1137      N1536   1.328   1_554  A
N1138     Co1152   2.023       .  S
N1139      N1151   1.320       .  A
N1139      N1155   1.318       .  A
N1139     Co1148   2.025       .  S
C1140      C2611   1.479   1_455  S
C1140      C1154   1.457       .  S
C1140      N1549   1.354   1_554  A
C1141      C1565   1.443       .  S
C1141      H1145   1.078       .  S
N1142      C1153   1.334       .  A
N1142     Co1152   2.028       .  S
N1144      C1545   1.354       .  A
C1146      C1563   1.447   1_554  S
C1146      N1162   1.336       .  A
Co1148    Cl1564   2.455       .  S
N1149      C1160   1.340       .  A
C1150      C1178   1.467       .  S
C1150      N1526   1.348   1_554  A
Co1152    Cl1159   2.437       .  S
C1158      C1551   1.447       .  S
Cl1159    Co1520   2.441   1_554  S
Cl1159    Co1553   2.455   1_554  S
C1160      C1546   1.443   1_554  S
C1163      C1200   1.445       .  S
C1163      N1586   1.336   1_554  A
N1164      N1181   1.310       .  A
N1164      N1591   1.310       .  A
N1164     Co1201   2.022       .  S
C1165      C1203   1.483       .  S
C1165      N1190   1.358       .  A
C1165      H1210   1.081       .  S
H1166      C1207   1.081       .  S
C1167      C1576   1.453       .  S
C1167      N1191   1.338       .  A
C1167      H1196   1.082       .  S
Co1168     N1186   2.027       .  S
Co1168     N1176   2.042       .  S
Co1168     N1208   2.036       .  S
Co1168     N1184   2.030       .  S
Co1168    Cl1212   2.470       .  S
N1169      C1207   1.359       .  A
N1169      N1176   1.316       .  A
N1169     Co1170   2.160       .  S
Co1170     N1173   2.089       .  S
Co1170     N1190   2.144       .  S
Co1170     N1177   2.101       .  S
Co1170    Cl1212   2.424       .  S
C1171      C1572   1.453   1_554  S
C1171      N1209   1.344       .  A
N1172      N1179   1.314       .  A
N1172      N1202   1.339       .  A
N1172     Co1205   2.172       .  S
N1173      N1596   1.329   1_554  A
N1173      N1209   1.322       .  A
N1174      C1203   1.332       .  A
N1174      N1184   1.318       .  A
H1175      C1200   1.078       .  S
N1176      N1197   1.323       .  A
N1177      N1600   1.329   1_554  A
N1177      N1182   1.325       .  A
C1178      C1611   1.458   1_554  S
C1178      N1182   1.347       .  A
N1179      C1194   1.336       .  A
N1179     Co1201   2.028       .  S
C1180      C1183   1.449       .  S
C1180      N1208   1.330       .  A
C1180      H1214   1.079       .  S
N1181      C1568   1.336       .  A
C1183      N1609   1.337   1_554  A
N1184      N1190   1.315       .  A
N1185      C1211   1.333       .  A
N1185      N1187   1.313       .  A
N1185     Co1201   2.024       .  S
N1186      C1200   1.329       .  A
N1186      N1569   1.310   1_554  A
N1187      N1215   1.334       .  A
N1187     Co1205   2.142       .  S
H1188      C1211   1.081       .  S
H1189      C1206   1.081       .  S
N1191      N1578   1.329       .  A
N1191     Co1205   2.092       .  S
N1192      N1204   1.311       .  A
N1192      N1613   1.310       .  A
N1192     Co1201   2.025       .  S
C1193      C1207   1.487       .  S
C1193      N1197   1.334       .  A
C1194      C1213   1.432       .  S
C1194      H1198   1.081       .  S
N1195      C1206   1.343       .  A
N1195      N1582   1.329       .  A
N1195     Co1205   2.110       .  S
C1199      C1211   1.434       .  S
C1199      N1215   1.366       .  A
Co1201    Cl1617   2.431       .  S
N1202      C1213   1.374       .  A
N1204      C1588   1.337       .  A
Co1205    Cl1617   2.446       .  S
C1206      C1583   1.458       .  S
N1208      N1597   1.310   1_554  A
Cl1212    Co1606   2.431   1_554  S
Cl1212    Co1610   2.446   1_554  S
O1216      C1224   1.308       .  A
O1216     Co1236   2.132       .  S
O1217      C1225   1.268       .  A
O1218      C1226   1.241       .  A
O1218     Co1238   1.980       .  S
O1219      C1227   1.255       .  A
O1220      C1226   1.267       .  A
O1221      C1227   1.307       .  A
O1221     Co1236   2.120       .  S
O1222      C1225   1.239       .  A
O1223      C1224   1.252       .  A
O1223     Co1238   1.887       .  S
C1224      C1409   1.476       .  S
C1225      C1492   1.483       .  S
C1226      C1417   1.484       .  S
C1227      C1512   1.475       .  S
O1228      C1241   1.280       .  A
O1229      C1242   1.288       .  A
O1229     Co1237   2.058       .  S
O1230      C1243   1.263       .  A
O1231      C1244   1.288       .  A
O1231     Co1239   2.032       .  S
O1232      C1244   1.287       .  A
O1232     Co1237   2.047       .  S
O1233      C1243   1.281       .  A
O1234      C1241   1.259       .  A
O1234     Co1239   1.954       .  S
O1235      C1242   1.284       .  A
Co1236     O1240   2.214   1_565  S
Co1238     O1240   1.982   1_565  S
C1241      C1356   1.485       .  S
C1242      C1598   1.490       .  S
C1243      C1618   1.486       .  S
C1244      C1364   1.488       .  S
O1245      C1253   1.282       .  A
O1245     Co2885   2.080       .  S
O1246      C1254   1.286       .  A
O1246     Co2886   2.046       .  S
O1247      C1255   1.285       .  A
O1247     Co2887   2.025       .  S
O1248      C1256   1.260       .  A
O1248     Co2888   1.952       .  S
O1249      C1255   1.287       .  A
O1249     Co2886   2.052       .  S
O1250      C1256   1.282       .  A
O1250     Co2885   2.073       .  S
O1251      C1254   1.285       .  A
O1251     Co2888   2.024       .  S
O1252      C1253   1.261       .  A
O1252     Co2887   1.956       .  S
C1253      C1303   1.489       .  S
C1254      C1371   1.486       .  S
C1255      C1311   1.489       .  S
C1256      C1376   1.483       .  S
O1257      C1270   1.310       .  A
O1257     Co1265   2.135       .  S
O1258      C1271   1.267       .  A
O1258     Co1266   2.028       .  S
O1259      C1272   1.252       .  A
O1259     Co1267   1.886       .  S
O1260      C1273   1.239       .  A
O1260     Co1268   1.977       .  S
O1261      C1273   1.268       .  A
O1261     Co1266   2.033       .  S
O1262      C1272   1.309       .  A
O1262     Co1265   2.131       .  S
O1263      C1270   1.251       .  A
O1263     Co1268   1.883       .  S
O1264      C1271   1.240       .  A
O1264     Co1267   1.977       .  S
Co1265     O2865   2.080   1_455  S
Co1265     O2870   2.073   1_455  S
Co1265     O1269   2.217   1_455  S
Co1266     O2866   2.046   1_455  S
Co1266     O2869   2.052   1_455  S
Co1266     O1269   2.085   1_455  S
Co1267     O2867   2.025   1_455  S
Co1267     O2872   1.956   1_455  S
Co1267     O1269   1.978   1_455  S
Co1268     O2868   1.952   1_455  S
Co1268     O2871   2.024   1_455  S
Co1268     O1269   1.978   1_455  S
C1270      C1515   1.475       .  S
C1271      C1424   1.481       .  S
C1272      C1429   1.475       .  S
C1273      C1523   1.483       .  S
O1274      C1282   1.306       .  A
O1274     Co1294   2.116       .  S
O1275      C1283   1.268       .  A
O1275     Co1295   2.029       .  S
O1276      C1284   1.237       .  A
O1276     Co1296   1.968       .  S
O1277      C1285   1.251       .  A
O1277     Co1297   1.887       .  S
O1278      C1284   1.268       .  A
O1278     Co1295   2.039       .  S
O1279      C1285   1.307       .  A
O1279     Co1294   2.129       .  S
O1280      C1283   1.240       .  A
O1280     Co1297   1.977       .  S
O1281      C1282   1.254       .  A
O1281     Co1296   1.895       .  S
C1282      C1604   1.472       .  S
C1283      C1318   1.480       .  S
C1284      C1608   1.478       .  S
C1285      C1323   1.474       .  S
O1286      C1299   1.281       .  A
O1286     Co1294   2.068       .  S
O1287      C1300   1.288       .  A
O1287     Co1295   2.049       .  S
O1288      C1301   1.259       .  A
O1288     Co1296   1.950       .  S
O1289      C1302   1.284       .  A
O1289     Co1297   2.019       .  S
O1290      C1302   1.288       .  A
O1290     Co1295   2.057       .  S
O1291      C1301   1.281       .  A
O1291     Co1294   2.076       .  S
O1292      C1299   1.261       .  A
O1292     Co1297   1.955       .  S
O1293      C1300   1.287       .  A
O1293     Co1296   2.030       .  S
Co1294     O1298   2.211       .  S
Co1295     O1298   2.085       .  S
Co1296     O1298   1.980       .  S
Co1297     O1298   1.982       .  S
C1299      C1498   1.482       .  S
C1300      C1530   1.488       .  S
C1301      C1535   1.484       .  S
C1302      C1502   1.489       .  S
C1303      C1340   1.490       .  S
C1303      N1321   1.331       .  A
N1304      N1321   1.322       .  A
N1304      N1326   1.317       .  A
N1304     Co1341   2.039       .  S
C1305      C1343   1.456       .  S
C1305      N1330   1.342       .  A
C1305      H1350   1.081       .  S
H1306      C1347   1.081       .  S
C1307      C1311   1.433       .  S
C1307      N1331   1.335       .  A
C1307      H1336   1.081       .  S
Co1308     N1326   2.164       .  S
Co1308     N1316   2.095       .  S
Co1308     N1348   2.141       .  S
Co1308     N1324   2.106       .  S
N1309      C1347   1.335       .  A
N1309     Co1310   2.084       .  S
Co1310     N1313   2.175       .  S
Co1310     N1330   2.099       .  S
Co1310     N1317   2.156       .  S
Co1310    Cl1352   2.445       .  S
C1311      N1349   1.373       .  A
N1312      N1342   1.313       .  A
N1312     Co1345   2.023       .  S
N1313      N1331   1.315       .  A
N1313      N1349   1.340       .  A
N1314      N1324   1.326       .  A
H1315      C1340   1.082       .  S
N1316      N1337   1.325       .  A
N1317      N1335   1.314       .  A
N1317      N1322   1.339       .  A
C1318      C1346   1.431       .  S
C1318      N1322   1.370       .  A
N1319      C1334   1.325       .  A
N1319     Co1341   2.030       .  S
C1320      C1323   1.479       .  S
C1320      N1348   1.352       .  A
C1320      H1354   1.081       .  S
C1323      N1344   1.333       .  A
N1325      C1351   1.330       .  A
N1325     Co1341   2.031       .  S
N1326      C1340   1.360       .  A
N1327      N1355   1.310       .  A
N1327     Co1345   2.027       .  S
H1328      C1351   1.079       .  S
H1329      C1346   1.081       .  S
N1331     Co1345   2.030       .  S
N1332      N1344   1.321       .  A
N1332      N1348   1.317       .  A
N1332     Co1341   2.032       .  S
C1333      C2664   1.453       .  S
C1333      N1337   1.348   1_554  A
C1334      H1338   1.075       .  S
N1335      C1346   1.330       .  A
N1335     Co1345   2.024       .  S
C1339      C1588   1.418       .  S
C1339      N1355   1.337       .  A
N1342      C1353   1.338       .  A
C1343      C1477   1.467       .  S
Co1345    Cl1352   2.438       .  S
C1353      C1392   1.417       .  S
C1356      C1393   1.489       .  S
C1356      N1374   1.331       .  A
N1357      N1374   1.321       .  A
N1357      N1379   1.318       .  A
N1357     Co1394   2.027       .  S
C1358      C1396   1.457       .  S
C1358      N1383   1.341       .  A
C1358      H1403   1.081       .  S
H1359      C1400   1.081       .  S
C1360      C1364   1.432       .  S
C1360      N1384   1.334       .  A
C1360      H1389   1.081       .  S
Co1361     N1379   2.170       .  S
Co1361     N1369   2.114       .  S
Co1361     N1401   2.165       .  S
Co1361     N1377   2.121       .  S
N1362      C1400   1.344       .  A
N1362     Co1363   2.112       .  S
Co1363     N1366   2.177       .  S
Co1363     N1383   2.107       .  S
Co1363     N1370   2.180       .  S
Co1363    Cl1405   2.446       .  S
C1364      N1402   1.374       .  A
N1365      N1395   1.310       .  A
N1365     Co1398   2.015       .  S
N1366      N1384   1.314       .  A
N1366      N1402   1.340       .  A
N1367      N1377   1.331       .  A
H1368      C1393   1.081       .  S
N1369      N1390   1.328       .  A
N1370      N1388   1.314       .  A
N1370      N1375   1.340       .  A
C1371      C1399   1.429       .  S
C1371      N1375   1.374       .  A
N1372      C1387   1.329       .  A
N1372     Co1394   2.026       .  S
C1373      C1376   1.490       .  S
C1373      N1401   1.360       .  A
C1373      H1407   1.082       .  S
C1376      N1397   1.328       .  A
N1378      C1404   1.325       .  A
N1378     Co1394   2.026       .  S
N1379      C1393   1.359       .  A
N1380      N1408   1.313       .  A
N1380     Co1398   2.026       .  S
H1381      C1404   1.075       .  S
H1382      C1399   1.081       .  S
N1384     Co1398   2.026       .  S
N1385      N1397   1.319       .  A
N1385      N1401   1.317       .  A
N1385     Co1394   2.026       .  S
C1386      C1400   1.460       .  S
C1387      H1391   1.079       .  S
N1388      C1399   1.332       .  A
N1388     Co1398   2.018       .  S
C1392      N1408   1.339       .  A
N1395      C1406   1.336       .  A
C1396      C3165   1.479       .  S
Co1398    Cl1405   2.441       .  S
C1406      C1568   1.412       .  S
C1409      C1446   1.478       .  S
C1409      N1427   1.336       .  A
N1410      N1427   1.323       .  A
N1410      N1432   1.317       .  A
N1410     Co1447   2.040       .  S
C1411      C1449   1.450       .  S
C1411      N1436   1.335       .  A
C1411      H1456   1.081       .  S
H1412      C1453   1.081       .  S
C1413      C1417   1.436       .  S
C1413      N1437   1.333       .  A
C1413      H1442   1.081       .  S
Co1414     N1432   2.136       .  S
Co1414     N1422   2.086       .  S
Co1414     N1454   2.130       .  S
Co1414     N1430   2.095       .  S
N1415      C1453   1.338       .  A
N1415     Co1416   2.089       .  S
Co1416     N1419   2.152       .  S
Co1416     N1436   2.085       .  S
Co1416     N1423   2.154       .  S
Co1416    Cl1458   2.440       .  S
C1417      N1455   1.369       .  A
N1418      N1448   1.310       .  A
N1418     Co1451   2.025       .  S
N1419      N1437   1.314       .  A
N1419      N1455   1.338       .  A
N1420      N1430   1.325       .  A
H1421      C1446   1.081       .  S
N1422      N1443   1.322       .  A
N1423      N1441   1.314       .  A
N1423      N1428   1.338       .  A
C1424      C1452   1.434       .  S
C1424      N1428   1.369       .  A
N1425      C1440   1.330       .  A
N1425     Co1447   2.033       .  S
C1426      C1429   1.478       .  S
C1426      N1454   1.352       .  A
C1426      H1460   1.082       .  S
C1429      N1450   1.334       .  A
N1431      C1457   1.326       .  A
N1431     Co1447   2.029       .  S
N1432      C1446   1.352       .  A
N1433      N1461   1.313       .  A
N1433     Co1451   2.035       .  S
H1434      C1457   1.078       .  S
H1435      C1452   1.081       .  S
N1437     Co1451   2.034       .  S
N1438      N1450   1.322       .  A
N1438      N1454   1.316       .  A
N1438     Co1447   2.042       .  S
C1439      C1453   1.453       .  S
C1440      H1444   1.080       .  S
N1441      C1452   1.331       .  A
N1441     Co1451   2.026       .  S
C1445      C1565   1.419       .  S
C1445      N1461   1.339       .  A
N1448      C1459   1.336       .  A
C1449      C2548   1.453   1_455  S
Co1451    Cl1458   2.439       .  S
C1459      C1462   1.415       .  S
C1462      C1499   1.448       .  S
N1463      N1480   1.311       .  A
N1463     Co1500   2.019       .  S
C1464      C1502   1.489       .  S
C1464      N1489   1.360       .  A
C1464      H1509   1.081       .  S
H1465      C1506   1.081       .  S
C1466      C1470   1.461   1_556  S
C1466      N1490   1.346       .  A
C1466      H1495   1.081       .  S
Co1467     N1485   2.032       .  S
Co1467     N1475   2.035       .  S
Co1467     N1507   2.033       .  S
Co1467     N1483   2.036       .  S
Co1467    Cl1511   2.462       .  S
N1468      C1506   1.359       .  A
N1468      N1475   1.317       .  A
N1468     Co1469   2.154       .  S
Co1469     N1472   2.108       .  S
Co1469     N1489   2.165       .  S
Co1469     N1476   2.104       .  S
Co1469    Cl1511   2.435       .  S
N1471      N1478   1.315       .  A
N1471      N1501   1.334       .  A
N1471     Co1504   2.148       .  S
N1472      N1508   1.327       .  A
N1473      C1502   1.332       .  A
N1473      N1483   1.321       .  A
H1474      C1499   1.080       .  S
N1475      N1496   1.319       .  A
N1476      N1481   1.325       .  A
C1477      N1481   1.349       .  A
N1478      C1493   1.335       .  A
N1478     Co1500   2.031       .  S
C1479      C1482   1.447       .  S
C1479      N1507   1.330       .  A
C1479      H1513   1.079       .  S
C1482      C1551   1.415       .  S
N1483      N1489   1.318       .  A
N1484      C1510   1.333       .  A
N1484      N1486   1.314       .  A
N1484     Co1500   2.019       .  S
N1485      C1499   1.329       .  A
N1486      N1514   1.339       .  A
N1486     Co1504   2.175       .  S
H1487      C1510   1.081       .  S
H1488      C1505   1.082       .  S
N1490     Co1504   2.113       .  S
N1491      N1503   1.311       .  A
N1491     Co1500   2.027       .  S
C1492      C1506   1.484       .  S
C1492      N1496   1.333       .  A
C1493      C1512   1.436       .  S
C1493      H1497   1.081       .  S
N1494      C1505   1.342       .  A
N1494     Co1504   2.101       .  S
C1498      C1510   1.428       .  S
C1498      N1514   1.374       .  A
N1501      C1512   1.366       .  A
C1515      C1552   1.479       .  S
C1515      N1533   1.333       .  A
N1516      N1533   1.322       .  A
N1516      N1538   1.317       .  A
N1516     Co1553   2.038       .  S
C1517      C1555   1.459       .  S
C1517      N1542   1.343       .  A
C1517      H1562   1.081       .  S
H1518      C1559   1.081       .  S
C1519      C1523   1.432       .  S
C1519      N1543   1.331       .  A
C1519      H1548   1.081       .  S
Co1520     N1538   2.139       .  S
Co1520     N1528   2.120       .  S
Co1520     N1560   2.169       .  S
Co1520     N1536   2.099       .  S
N1521      C1559   1.341       .  A
N1521     Co1522   2.103       .  S
Co1522     N1525   2.166       .  S
Co1522     N1542   2.106       .  S
Co1522     N1529   2.175       .  S
Co1522    Cl1564   2.447       .  S
C1523      N1561   1.371       .  A
N1524      N1554   1.314       .  A
N1524     Co1557   2.033       .  S
N1525      N1543   1.315       .  A
N1525      N1561   1.339       .  A
N1526      N1536   1.325       .  A
H1527      C1552   1.081       .  S
N1528      N1549   1.331       .  A
N1529      N1547   1.315       .  A
N1529      N1534   1.340       .  A
C1530      C1558   1.431       .  S
C1530      N1534   1.374       .  A
N1531      C1546   1.325       .  A
N1531     Co1553   2.020       .  S
C1532      C1535   1.490       .  S
C1532      N1560   1.360       .  A
C1532      H1566   1.082       .  S
C1535      N1556   1.329       .  A
N1537      C1563   1.330       .  A
N1537     Co1553   2.037       .  S
N1538      C1552   1.352       .  A
N1539      N1567   1.311       .  A
N1539     Co1557   2.023       .  S
H1540      C1563   1.078       .  S
H1541      C1558   1.081       .  S
N1543     Co1557   2.023       .  S
N1544      N1556   1.320       .  A
N1544      N1560   1.318       .  A
N1544     Co1553   2.025       .  S
C1545      C3016   1.479   1_455  S
C1545      C1559   1.457       .  S
C1546      H1550   1.078       .  S
N1547      C1558   1.334       .  A
N1547     Co1557   2.028       .  S
C1551      N1567   1.336       .  A
N1554      C1565   1.340       .  A
C1555      C1583   1.467       .  S
Co1557    Cl1564   2.437       .  S
C1568      C1605   1.445       .  S
N1569      N1586   1.310       .  A
N1569     Co1606   2.022       .  S
C1570      C1608   1.483       .  S
C1570      N1595   1.358       .  A
C1570      H1615   1.081       .  S
H1571      C1612   1.081       .  S
C1572      N1596   1.338       .  A
C1572      H1601   1.082       .  S
Co1573     N1591   2.027       .  S
Co1573     N1581   2.042       .  S
Co1573     N1613   2.036       .  S
Co1573     N1589   2.030       .  S
Co1573    Cl1617   2.470       .  S
N1574      C1612   1.359       .  A
N1574      N1581   1.316       .  A
N1574     Co1575   2.160       .  S
Co1575     N1578   2.089       .  S
Co1575     N1595   2.144       .  S
Co1575     N1582   2.101       .  S
Co1575    Cl1617   2.424       .  S
C1576      N1614   1.344       .  A
N1577      N1584   1.314       .  A
N1577      N1607   1.339       .  A
N1577     Co1610   2.172       .  S
N1578      N1614   1.322       .  A
N1579      C1608   1.332       .  A
N1579      N1589   1.318       .  A
H1580      C1605   1.078       .  S
N1581      N1602   1.323       .  A
N1582      N1587   1.325       .  A
C1583      N1587   1.347       .  A
N1584      C1599   1.336       .  A
N1584     Co1606   2.028       .  S
C1585      C1588   1.449       .  S
C1585      N1613   1.330       .  A
C1585      H1619   1.079       .  S
N1589      N1595   1.315       .  A
N1590      C1616   1.333       .  A
N1590      N1592   1.313       .  A
N1590     Co1606   2.024       .  S
N1591      C1605   1.329       .  A
N1592      N1620   1.334       .  A
N1592     Co1610   2.142       .  S
H1593      C1616   1.081       .  S
H1594      C1611   1.081       .  S
N1596     Co1610   2.092       .  S
N1597      N1609   1.311       .  A
N1597     Co1606   2.025       .  S
C1598      C1612   1.487       .  S
C1598      N1602   1.334       .  A
C1599      C1618   1.432       .  S
C1599      H1603   1.081       .  S
N1600      C1611   1.343       .  A
N1600     Co1610   2.110       .  S
C1604      C1616   1.434       .  S
C1604      N1620   1.366       .  A
N1607      C1618   1.374       .  A
O1621      C1629   1.308       .  A
O1621     Co1641   2.132       .  S
O1622      C1630   1.268       .  A
O1622     Co2452   2.041       .  S
O1623      C1631   1.241       .  A
O1623     Co1643   1.980       .  S
O1624      C1632   1.255       .  A
O1624     Co2454   1.895       .  S
O1625      C1631   1.267       .  A
O1625     Co2452   2.030       .  S
O1626      C1632   1.307       .  A
O1626     Co1641   2.120       .  S
O1627      C1630   1.239       .  A
O1627     Co2454   1.972       .  S
O1628      C1629   1.252       .  A
O1628     Co1643   1.887       .  S
C1629      C1814   1.476       .  S
C1630      C1897   1.483       .  S
C1631      C1822   1.484       .  S
C1632      C1917   1.475       .  S
O1633      C1646   1.280       .  A
O1633     Co2451   2.074   1_545  S
O1634      C1647   1.288       .  A
O1634     Co1642   2.058   1_545  S
O1635      C1648   1.263       .  A
O1635     Co2453   1.961   1_545  S
O1636      C1649   1.288       .  A
O1636     Co1644   2.032   1_545  S
O1637      C1649   1.287       .  A
O1637     Co1642   2.047   1_545  S
O1638      C1648   1.281       .  A
O1638     Co2451   2.070   1_545  S
O1639      C1646   1.259       .  A
O1639     Co1644   1.954   1_545  S
O1640      C1647   1.284       .  A
O1640     Co2453   2.020   1_545  S
Co1641     O2443   2.074       .  S
Co1641     O2448   2.070       .  S
Co1641     O1645   2.214       .  S
Co1642     O2432   2.041       .  S
Co1642     O2435   2.030       .  S
Co1642     O2455   2.087   1_565  S
Co1643     O2445   1.961       .  S
Co1643     O2450   2.020       .  S
Co1643     O1645   1.982       .  S
Co1644     O2434   1.895       .  S
Co1644     O2437   1.972       .  S
Co1644     O2455   1.980   1_565  S
O1645     Co2452   2.087       .  S
O1645     Co2454   1.980       .  S
C1646      C1761   1.485       .  S
C1647      C2003   1.490       .  S
C1648      C2023   1.486       .  S
C1649      C1769   1.488       .  S
O1650      C1658   1.282       .  A
O1651      C1659   1.286       .  A
O1652      C1660   1.285       .  A
O1653      C1661   1.260       .  A
O1654      C1660   1.287       .  A
O1655      C1661   1.282       .  A
O1656      C1659   1.285       .  A
O1657      C1658   1.261       .  A
C1658      C1708   1.489       .  S
C1659      C1776   1.486       .  S
C1660      C1716   1.489       .  S
C1661      C1781   1.483       .  S
O1662      C1675   1.310       .  A
O1662     Co1670   2.135       .  S
O1663      C1676   1.267       .  A
O1663     Co1671   2.028       .  S
O1664      C1677   1.252       .  A
O1664     Co1672   1.886       .  S
O1665      C1678   1.239       .  A
O1665     Co1673   1.977       .  S
O1666      C1678   1.268       .  A
O1666     Co1671   2.033       .  S
O1667      C1677   1.309       .  A
O1667     Co1670   2.131       .  S
O1668      C1675   1.251       .  A
O1668     Co1673   1.883       .  S
O1669      C1676   1.240       .  A
O1669     Co1672   1.977       .  S
Co1670     O1674   2.217       .  S
Co1671     O1674   2.085       .  S
Co1672     O1674   1.978       .  S
Co1673     O1674   1.978       .  S
C1675      C1920   1.475       .  S
C1676      C1829   1.481       .  S
C1677      C1834   1.475       .  S
C1678      C1928   1.483       .  S
O1679      C1687   1.306       .  A
O1679     Co1699   2.116       .  S
O1680      C1688   1.268       .  A
O1680     Co1700   2.029       .  S
O1681      C1689   1.237       .  A
O1681     Co1701   1.968       .  S
O1682      C1690   1.251       .  A
O1682     Co1702   1.887       .  S
O1683      C1689   1.268       .  A
O1683     Co1700   2.039       .  S
O1684      C1690   1.307       .  A
O1684     Co1699   2.129       .  S
O1685      C1688   1.240       .  A
O1685     Co1702   1.977       .  S
O1686      C1687   1.254       .  A
O1686     Co1701   1.895       .  S
C1687      C2009   1.472       .  S
C1688      C1723   1.480       .  S
C1689      C2013   1.478       .  S
C1690      C1728   1.474       .  S
O1691      C1704   1.281       .  A
O1691     Co1699   2.068       .  S
O1692      C1705   1.288       .  A
O1692     Co1700   2.049       .  S
O1693      C1706   1.259       .  A
O1693     Co1701   1.950       .  S
O1694      C1707   1.284       .  A
O1694     Co1702   2.019       .  S
O1695      C1707   1.288       .  A
O1695     Co1700   2.057       .  S
O1696      C1706   1.281       .  A
O1696     Co1699   2.076       .  S
O1697      C1704   1.261       .  A
O1697     Co1702   1.955       .  S
O1698      C1705   1.287       .  A
O1698     Co1701   2.030       .  S
Co1699     O1703   2.211       .  S
Co1700     O1703   2.085       .  S
Co1701     O1703   1.980       .  S
Co1702     O1703   1.982       .  S
C1704      C1903   1.482       .  S
C1705      C1935   1.488       .  S
C1706      C1940   1.484       .  S
C1707      C1907   1.489       .  S
C1708      C1745   1.490       .  S
C1708      N1726   1.331       .  A
N1709      N1726   1.322       .  A
N1709      N1731   1.317       .  A
N1709     Co1746   2.039       .  S
C1710      C1748   1.456       .  S
C1710      N1735   1.342       .  A
C1710      H1755   1.081       .  S
H1711      C1752   1.081       .  S
C1712      C1716   1.433       .  S
C1712      N1736   1.335       .  A
C1712      H1741   1.081       .  S
Co1713     N1731   2.164       .  S
Co1713     N1721   2.095       .  S
Co1713     N1753   2.141       .  S
Co1713     N1729   2.106       .  S
Co1713    Cl2162   2.438       .  S
N1714      C1752   1.335       .  A
N1714      N2126   1.328   1_554  A
N1714     Co1715   2.084       .  S
Co1715     N1718   2.175       .  S
Co1715     N1735   2.099       .  S
Co1715     N1722   2.156       .  S
Co1715    Cl1757   2.445       .  S
C1716      N1754   1.373       .  A
N1717      N2129   1.310   1_554  A
N1717      N1747   1.313       .  A
N1717     Co1750   2.023       .  S
N1718      N1736   1.315       .  A
N1718      N1754   1.340       .  A
N1719      C2153   1.349       .  A
N1719      N1729   1.326       .  A
H1720      C1745   1.082       .  S
N1721      N2119   1.328       .  A
N1721      N1742   1.325       .  A
N1722      N1740   1.314       .  A
N1722      N1727   1.339       .  A
C1723      C1751   1.431       .  S
C1723      N1727   1.370       .  A
N1724      C1739   1.325       .  A
N1724      N2122   1.310       .  A
N1724     Co1746   2.030       .  S
C1725      C1728   1.479       .  S
C1725      N1753   1.352       .  A
C1725      H1759   1.081       .  S
C1728      N1749   1.333       .  A
N1729      N2140   1.328       .  A
N1730      C1756   1.330       .  A
N1730      N2137   1.310       .  A
N1730     Co1746   2.031       .  S
N1731      C1745   1.360       .  A
N1732      N2135   1.310   1_554  A
N1732      N1760   1.310       .  A
N1732     Co1750   2.027       .  S
H1733      C1756   1.079       .  S
H1734      C1751   1.081       .  S
N1735      N2134   1.328   1_554  A
N1736     Co1750   2.030       .  S
N1737      N1749   1.321       .  A
N1737      N1753   1.317       .  A
N1737     Co1746   2.032       .  S
C1738      C2157   1.450       .  S
C1738      N1742   1.348       .  A
C1739      C2163   1.443       .  S
C1739      H1743   1.075       .  S
N1740      C1751   1.330       .  A
N1740     Co1750   2.024       .  S
C1744      C2161   1.448   1_554  S
C1744      C1993   1.418       .  S
C1744      N1760   1.337       .  A
Co1746    Cl2162   2.455       .  S
N1747      C1758   1.338       .  A
C1748      C1882   1.467       .  S
C1748      N2124   1.349   1_554  A
Co1750    Cl1757   2.438       .  S
C1752      C2143   1.450       .  S
C1756      C2149   1.448       .  S
Cl1757    Co2118   2.438   1_554  S
Cl1757    Co2151   2.455   1_554  S
C1758      C2144   1.443   1_554  S
C1758      C1797   1.417       .  S
C1761      C1798   1.489       .  S
C1761      N1779   1.331       .  A
N1762      N1779   1.321       .  A
N1762      N1784   1.318       .  A
N1762     Co1799   2.027       .  S
C1763      C1801   1.457       .  S
C1763      N1788   1.341       .  A
C1763      H1808   1.081       .  S
H1764      C1805   1.081       .  S
C1765      C1769   1.432       .  S
C1765      N1789   1.334       .  A
C1765      H1794   1.081       .  S
Co1766     N1784   2.170       .  S
Co1766     N1774   2.114       .  S
Co1766     N1806   2.165       .  S
Co1766     N1782   2.121       .  S
Co1766    Cl2215   2.444       .  S
N1767      C1805   1.344       .  A
N1767      N2179   1.329   1_554  A
N1767     Co1768   2.112       .  S
Co1768     N1771   2.177       .  S
Co1768     N1788   2.107       .  S
Co1768     N1775   2.180       .  S
Co1768    Cl1810   2.446       .  S
C1769      N1807   1.374       .  A
N1770      N2182   1.309   1_554  A
N1770      N1800   1.310       .  A
N1770     Co1803   2.015       .  S
N1771      N1789   1.314       .  A
N1771      N1807   1.340       .  A
N1772      C2206   1.354       .  A
N1772      N1782   1.331       .  A
H1773      C1798   1.081       .  S
N1774      N2172   1.329       .  A
N1774      N1795   1.328       .  A
N1775      N1793   1.314       .  A
N1775      N1780   1.340       .  A
C1776      C1804   1.429       .  S
C1776      N1780   1.374       .  A
N1777      C1792   1.329       .  A
N1777      N2175   1.309       .  A
N1777     Co1799   2.026       .  S
C1778      C1781   1.490       .  S
C1778      N1806   1.360       .  A
C1778      H1812   1.082       .  S
C1781      N1802   1.328       .  A
N1782      N2193   1.329       .  A
N1783      C1809   1.325       .  A
N1783      N2190   1.309       .  A
N1783     Co1799   2.026       .  S
N1784      C1798   1.359       .  A
N1785      N2188   1.309   1_554  A
N1785      N1813   1.313       .  A
N1785     Co1803   2.026       .  S
H1786      C1809   1.075       .  S
H1787      C1804   1.081       .  S
N1788      N2187   1.329   1_554  A
N1789     Co1803   2.026       .  S
N1790      N1802   1.319       .  A
N1790      N1806   1.317       .  A
N1790     Co1799   2.026       .  S
C1791      C1805   1.460       .  S
C1791      C3090   1.477   1_545  S
C1791      N2200   1.351   1_554  A
C1792      C2216   1.445       .  S
C1792      H1796   1.079       .  S
N1793      C1804   1.332       .  A
N1793     Co1803   2.018       .  S
N1795      C2196   1.351       .  A
C1797      C2214   1.442   1_554  S
C1797      N1813   1.339       .  A
Co1799    Cl2215   2.453       .  S
N1800      C1811   1.336       .  A
C1801      N2177   1.354   1_554  A
Co1803    Cl1810   2.441       .  S
C1809      C2202   1.442       .  S
Cl1810    Co2171   2.444   1_554  S
Cl1810    Co2204   2.453   1_554  S
C1811      C2197   1.445   1_554  S
C1811      C1973   1.412       .  S
C1814      C1851   1.478       .  S
C1814      N1832   1.336       .  A
N1815      N1832   1.323       .  A
N1815      N1837   1.317       .  A
N1815     Co1852   2.040       .  S
C1816      C1854   1.450       .  S
C1816      N1841   1.335       .  A
C1816      H1861   1.081       .  S
H1817      C1858   1.081       .  S
C1818      C1822   1.436       .  S
C1818      N1842   1.333       .  A
C1818      H1847   1.081       .  S
Co1819     N1837   2.136       .  S
Co1819     N1827   2.086       .  S
Co1819     N1859   2.130       .  S
Co1819     N1835   2.095       .  S
Co1819    Cl2268   2.430       .  S
N1820      C1858   1.338       .  A
N1820      N2232   1.327   1_554  A
N1820     Co1821   2.089       .  S
Co1821     N1824   2.152       .  S
Co1821     N1841   2.085       .  S
Co1821     N1828   2.154       .  S
Co1821    Cl1863   2.440       .  S
C1822      N1860   1.369       .  A
N1823      N2235   1.311   1_554  A
N1823      N1853   1.310       .  A
N1823     Co1856   2.025       .  S
N1824      N1842   1.314       .  A
N1824      N1860   1.338       .  A
N1825      C2259   1.347       .  A
N1825      N1835   1.325       .  A
H1826      C1851   1.081       .  S
N1827      N2225   1.327       .  A
N1827      N1848   1.322       .  A
N1828      N1846   1.314       .  A
N1828      N1833   1.338       .  A
C1829      C1857   1.434       .  S
C1829      N1833   1.369       .  A
N1830      C1845   1.330       .  A
N1830      N2228   1.311       .  A
N1830     Co1852   2.033       .  S
C1831      C1834   1.478       .  S
C1831      N1859   1.352       .  A
C1831      H1865   1.082       .  S
C1834      N1855   1.334       .  A
N1835      N2246   1.327       .  A
N1836      C1862   1.326       .  A
N1836      N2243   1.311       .  A
N1836     Co1852   2.029       .  S
N1837      C1851   1.352       .  A
N1838      N2241   1.311   1_554  A
N1838      N1866   1.313       .  A
N1838     Co1856   2.035       .  S
H1839      C1862   1.078       .  S
H1840      C1857   1.081       .  S
N1841      N2240   1.327   1_554  A
N1842     Co1856   2.034       .  S
N1843      N1855   1.322       .  A
N1843      N1859   1.316       .  A
N1843     Co1852   2.042       .  S
C1844      C1858   1.453       .  S
C1844      C2791   1.450       .  S
C1844      N2253   1.344   1_554  A
C1845      C2269   1.448       .  S
C1845      H1849   1.080       .  S
N1846      C1857   1.331       .  A
N1846     Co1856   2.026       .  S
N1848      C2249   1.344       .  A
C1850      C2267   1.445   1_554  S
C1850      C1970   1.419       .  S
C1850      N1866   1.339       .  A
Co1852    Cl2268   2.457       .  S
N1853      C1864   1.336       .  A
C1854      N2230   1.347   1_554  A
Co1856    Cl1863   2.439       .  S
C1862      C2255   1.445       .  S
Cl1863    Co2224   2.430   1_554  S
Cl1863    Co2257   2.457   1_554  S
C1864      C2250   1.448   1_554  S
C1864      C1867   1.415       .  S
C1867      C1904   1.448       .  S
C1867      N2290   1.336   1_554  A
N1868      N1885   1.311       .  A
N1868      N2295   1.309       .  A
N1868     Co1905   2.019       .  S
C1869      C1907   1.489       .  S
C1869      N1894   1.360       .  A
C1869      H1914   1.081       .  S
H1870      C1911   1.081       .  S
C1871      C1875   1.461       .  S
C1871      N1895   1.346       .  A
C1871      H1900   1.081       .  S
Co1872     N1890   2.032       .  S
Co1872     N1880   2.035       .  S
Co1872     N1912   2.033       .  S
Co1872     N1888   2.036       .  S
Co1872    Cl1916   2.462       .  S
N1873      C1911   1.359       .  A
N1873      N1880   1.317       .  A
N1873     Co1874   2.154       .  S
Co1874     N1877   2.108       .  S
Co1874     N1894   2.165       .  S
Co1874     N1881   2.104       .  S
Co1874    Cl1916   2.435       .  S
C1875      C3006   1.477       .  S
C1875      N2318   1.350       .  A
N1876      N1883   1.315       .  A
N1876      N1906   1.334       .  A
N1876     Co1909   2.148       .  S
N1877      N2300   1.328   1_554  A
N1877      N1913   1.327       .  A
N1878      C1907   1.332       .  A
N1878      N1888   1.321       .  A
H1879      C1904   1.080       .  S
N1880      N1901   1.319       .  A
N1881      N2304   1.328   1_554  A
N1881      N1886   1.325       .  A
C1882      C2315   1.457   1_554  S
C1882      N1886   1.349       .  A
N1883      C1898   1.335       .  A
N1883     Co1905   2.031       .  S
C1884      C1887   1.447       .  S
C1884      N1912   1.330       .  A
C1884      H1918   1.079       .  S
N1885      C2272   1.336       .  A
C1887      C1956   1.415       .  S
C1887      N2313   1.336   1_554  A
N1888      N1894   1.318       .  A
N1889      C1915   1.333       .  A
N1889      N1891   1.314       .  A
N1889     Co1905   2.019       .  S
N1890      C1904   1.329       .  A
N1890      N2273   1.309   1_554  A
N1891      N1919   1.339       .  A
N1891     Co1909   2.175       .  S
H1892      C1915   1.081       .  S
H1893      C1910   1.082       .  S
N1895      N2282   1.328       .  A
N1895     Co1909   2.113       .  S
N1896      N1908   1.311       .  A
N1896      N2317   1.310       .  A
N1896     Co1905   2.027       .  S
C1897      C1911   1.484       .  S
C1897      N1901   1.333       .  A
C1898      C1917   1.436       .  S
C1898      H1902   1.081       .  S
N1899      C1910   1.342       .  A
N1899      N2286   1.328       .  A
N1899     Co1909   2.101       .  S
C1903      C1915   1.428       .  S
C1903      N1919   1.374       .  A
Co1905    Cl2321   2.427       .  S
N1906      C1917   1.366       .  A
N1908      C2292   1.336       .  A
Co1909    Cl2321   2.453       .  S
C1910      C2287   1.457       .  S
N1912      N2301   1.310   1_554  A
N1913      C2280   1.350       .  A
Cl1916    Co2310   2.427   1_554  S
Cl1916    Co2314   2.453   1_554  S
C1920      C1957   1.479       .  S
C1920      N1938   1.333       .  A
N1921      N1938   1.322       .  A
N1921      N1943   1.317       .  A
N1921     Co1958   2.038       .  S
C1922      C1960   1.459       .  S
C1922      N1947   1.343       .  A
C1922      H1967   1.081       .  S
H1923      C1964   1.081       .  S
C1924      C1928   1.432       .  S
C1924      N1948   1.331       .  A
C1924      H1953   1.081       .  S
Co1925     N1943   2.139       .  S
Co1925     N1933   2.120       .  S
Co1925     N1965   2.169       .  S
Co1925     N1941   2.099       .  S
Co1925    Cl2374   2.441       .  S
N1926      C1964   1.341       .  A
N1926      N2338   1.328   1_554  A
N1926     Co1927   2.103       .  S
Co1927     N1930   2.166       .  S
Co1927     N1947   2.106       .  S
Co1927     N1934   2.175       .  S
Co1927    Cl1969   2.447       .  S
C1928      N1966   1.371       .  A
N1929      N2341   1.309   1_554  A
N1929      N1959   1.314       .  A
N1929     Co1962   2.033       .  S
N1930      N1948   1.315       .  A
N1930      N1966   1.339       .  A
N1931      C2365   1.348       .  A
N1931      N1941   1.325       .  A
H1932      C1957   1.081       .  S
N1933      N2331   1.328       .  A
N1933      N1954   1.331       .  A
N1934      N1952   1.315       .  A
N1934      N1939   1.340       .  A
C1935      C1963   1.431       .  S
C1935      N1939   1.374       .  A
N1936      C1951   1.325       .  A
N1936      N2334   1.309       .  A
N1936     Co1958   2.020       .  S
C1937      C1940   1.490       .  S
C1937      N1965   1.360       .  A
C1937      H1971   1.082       .  S
C1940      N1961   1.329       .  A
N1941      N2352   1.328       .  A
N1942      C1968   1.330       .  A
N1942      N2349   1.310       .  A
N1942     Co1958   2.037       .  S
N1943      C1957   1.352       .  A
N1944      N2347   1.310   1_554  A
N1944      N1972   1.311       .  A
N1944     Co1962   2.023       .  S
H1945      C1968   1.078       .  S
H1946      C1963   1.081       .  S
N1947      N2346   1.328   1_554  A
N1948     Co1962   2.023       .  S
N1949      N1961   1.320       .  A
N1949      N1965   1.318       .  A
N1949     Co1958   2.025       .  S
C1950      C1964   1.457       .  S
C1950      N2359   1.354   1_554  A
C1951      C2375   1.443       .  S
C1951      H1955   1.078       .  S
N1952      C1963   1.334       .  A
N1952     Co1962   2.028       .  S
N1954      C2355   1.354       .  A
C1956      C2373   1.447   1_554  S
C1956      N1972   1.336       .  A
Co1958    Cl2374   2.455       .  S
N1959      C1970   1.340       .  A
C1960      C1988   1.467       .  S
C1960      N2336   1.348   1_554  A
Co1962    Cl1969   2.437       .  S
C1968      C2361   1.447       .  S
Cl1969    Co2330   2.441   1_554  S
Cl1969    Co2363   2.455   1_554  S
C1970      C2356   1.443   1_554  S
C1973      C2010   1.445       .  S
C1973      N2396   1.336   1_554  A
N1974      N1991   1.310       .  A
N1974      N2401   1.310       .  A
N1974     Co2011   2.022       .  S
C1975      C2013   1.483       .  S
C1975      N2000   1.358       .  A
C1975      H2020   1.081       .  S
H1976      C2017   1.081       .  S
C1977      C2386   1.453       .  S
C1977      N2001   1.338       .  A
C1977      H2006   1.082       .  S
Co1978     N1996   2.027       .  S
Co1978     N1986   2.042       .  S
Co1978     N2018   2.036       .  S
Co1978     N1994   2.030       .  S
Co1978    Cl2022   2.470       .  S
N1979      C2017   1.359       .  A
N1979      N1986   1.316       .  A
N1979     Co1980   2.160       .  S
Co1980     N1983   2.089       .  S
Co1980     N2000   2.144       .  S
Co1980     N1987   2.101       .  S
Co1980    Cl2022   2.424       .  S
C1981      C2654   1.450   1_545  S
C1981      C2382   1.453   1_554  S
C1981      N2019   1.344       .  A
N1982      N1989   1.314       .  A
N1982      N2012   1.339       .  A
N1982     Co2015   2.172       .  S
N1983      N2406   1.329   1_554  A
N1983      N2019   1.322       .  A
N1984      C2013   1.332       .  A
N1984      N1994   1.318       .  A
H1985      C2010   1.078       .  S
N1986      N2007   1.323       .  A
N1987      N2410   1.329   1_554  A
N1987      N1992   1.325       .  A
C1988      C2421   1.458   1_554  S
C1988      N1992   1.347       .  A
N1989      C2004   1.336       .  A
N1989     Co2011   2.028       .  S
C1990      C1993   1.449       .  S
C1990      N2018   1.330       .  A
C1990      H2024   1.079       .  S
N1991      C2378   1.336       .  A
C1993      N2419   1.337   1_554  A
N1994      N2000   1.315       .  A
N1995      C2021   1.333       .  A
N1995      N1997   1.313       .  A
N1995     Co2011   2.024       .  S
N1996      C2010   1.329       .  A
N1996      N2379   1.310   1_554  A
N1997      N2025   1.334       .  A
N1997     Co2015   2.142       .  S
H1998      C2021   1.081       .  S
H1999      C2016   1.081       .  S
N2001      N2388   1.329       .  A
N2001     Co2015   2.092       .  S
N2002      N2014   1.311       .  A
N2002      N2423   1.310       .  A
N2002     Co2011   2.025       .  S
C2003      C2017   1.487       .  S
C2003      N2007   1.334       .  A
C2004      C2023   1.432       .  S
C2004      H2008   1.081       .  S
N2005      C2016   1.343       .  A
N2005      N2392   1.329       .  A
N2005     Co2015   2.110       .  S
C2009      C2021   1.434       .  S
C2009      N2025   1.366       .  A
Co2011    Cl2427   2.431       .  S
N2012      C2023   1.374       .  A
N2014      C2398   1.337       .  A
Co2015    Cl2427   2.446       .  S
C2016      C2393   1.458       .  S
N2018      N2407   1.310   1_554  A
Cl2022    Co2416   2.431   1_554  S
Cl2022    Co2420   2.446   1_554  S
O2026      C2034   1.308       .  A
O2026     Co2046   2.132       .  S
O2027      C2035   1.268       .  A
O2027     Co2857   2.041       .  S
O2028      C2036   1.241       .  A
O2028     Co2048   1.980       .  S
O2029      C2037   1.255       .  A
O2029     Co2859   1.895       .  S
O2030      C2036   1.267       .  A
O2030     Co2857   2.030       .  S
O2031      C2037   1.307       .  A
O2031     Co2046   2.120       .  S
O2032      C2035   1.239       .  A
O2032     Co2859   1.972       .  S
O2033      C2034   1.252       .  A
O2033     Co2048   1.887       .  S
C2034      C2219   1.476       .  S
C2035      C2302   1.483       .  S
C2036      C2227   1.484       .  S
C2037      C2322   1.475       .  S
O2038      C2051   1.280       .  A
O2038     Co2856   2.074   1_545  S
O2039      C2052   1.288       .  A
O2039     Co2047   2.058   1_545  S
O2040      C2053   1.263       .  A
O2040     Co2858   1.961   1_545  S
O2041      C2054   1.288       .  A
O2041     Co2049   2.032   1_545  S
O2042      C2054   1.287       .  A
O2042     Co2047   2.047   1_545  S
O2043      C2053   1.281       .  A
O2043     Co2856   2.070   1_545  S
O2044      C2051   1.259       .  A
O2044     Co2049   1.954   1_545  S
O2045      C2052   1.284       .  A
O2045     Co2858   2.020   1_545  S
Co2046     O2848   2.074       .  S
Co2046     O2853   2.070       .  S
Co2046     O2050   2.214       .  S
Co2047     O2837   2.041       .  S
Co2047     O2840   2.030       .  S
Co2047     O2860   2.087   1_565  S
Co2048     O2850   1.961       .  S
Co2048     O2855   2.020       .  S
Co2048     O2050   1.982       .  S
Co2049     O2839   1.895       .  S
Co2049     O2842   1.972       .  S
Co2049     O2860   1.980   1_565  S
O2050     Co2857   2.087       .  S
O2050     Co2859   1.980       .  S
C2051      C2166   1.485       .  S
C2052      C2408   1.490       .  S
C2053      C2428   1.486       .  S
C2054      C2174   1.488       .  S
O2055      C2063   1.282       .  A
O2056      C2064   1.286       .  A
O2057      C2065   1.285       .  A
O2058      C2066   1.260       .  A
O2059      C2065   1.287       .  A
O2060      C2066   1.282       .  A
O2061      C2064   1.285       .  A
O2062      C2063   1.261       .  A
C2063      C2113   1.489       .  S
C2064      C2181   1.486       .  S
C2065      C2121   1.489       .  S
C2066      C2186   1.483       .  S
O2067      C2080   1.310       .  A
O2067     Co2075   2.135       .  S
O2068      C2081   1.267       .  A
O2068     Co2076   2.028       .  S
O2069      C2082   1.252       .  A
O2069     Co2077   1.886       .  S
O2070      C2083   1.239       .  A
O2070     Co2078   1.977       .  S
O2071      C2083   1.268       .  A
O2071     Co2076   2.033       .  S
O2072      C2082   1.309       .  A
O2072     Co2075   2.131       .  S
O2073      C2080   1.251       .  A
O2073     Co2078   1.883       .  S
O2074      C2081   1.240       .  A
O2074     Co2077   1.977       .  S
Co2075     O2079   2.217       .  S
Co2076     O2079   2.085       .  S
Co2077     O2079   1.978       .  S
Co2078     O2079   1.978       .  S
C2080      C2325   1.475       .  S
C2081      C2234   1.481       .  S
C2082      C2239   1.475       .  S
C2083      C2333   1.483       .  S
O2084      C2092   1.306       .  A
O2084     Co2104   2.116       .  S
O2085      C2093   1.268       .  A
O2085     Co2105   2.029       .  S
O2086      C2094   1.237       .  A
O2086     Co2106   1.968       .  S
O2087      C2095   1.251       .  A
O2087     Co2107   1.887       .  S
O2088      C2094   1.268       .  A
O2088     Co2105   2.039       .  S
O2089      C2095   1.307       .  A
O2089     Co2104   2.129       .  S
O2090      C2093   1.240       .  A
O2090     Co2107   1.977       .  S
O2091      C2092   1.254       .  A
O2091     Co2106   1.895       .  S
C2092      C2414   1.472       .  S
C2093      C2128   1.480       .  S
C2094      C2418   1.478       .  S
C2095      C2133   1.474       .  S
O2096      C2109   1.281       .  A
O2096     Co2104   2.068       .  S
O2097      C2110   1.288       .  A
O2097     Co2105   2.049       .  S
O2098      C2111   1.259       .  A
O2098     Co2106   1.950       .  S
O2099      C2112   1.284       .  A
O2099     Co2107   2.019       .  S
O2100      C2112   1.288       .  A
O2100     Co2105   2.057       .  S
O2101      C2111   1.281       .  A
O2101     Co2104   2.076       .  S
O2102      C2109   1.261       .  A
O2102     Co2107   1.955       .  S
O2103      C2110   1.287       .  A
O2103     Co2106   2.030       .  S
Co2104     O2108   2.211       .  S
Co2105     O2108   2.085       .  S
Co2106     O2108   1.980       .  S
Co2107     O2108   1.982       .  S
C2109      C2308   1.482       .  S
C2110      C2340   1.488       .  S
C2111      C2345   1.484       .  S
C2112      C2312   1.489       .  S
C2113      C2150   1.490       .  S
C2113      N2131   1.331       .  A
N2114      N2131   1.322       .  A
N2114      N2136   1.317       .  A
N2114     Co2151   2.039       .  S
C2115      C2153   1.456       .  S
C2115      N2140   1.342       .  A
C2115      H2160   1.081       .  S
H2116      C2157   1.081       .  S
C2117      C2121   1.433       .  S
C2117      N2141   1.335       .  A
C2117      H2146   1.081       .  S
Co2118     N2136   2.164       .  S
Co2118     N2126   2.095       .  S
Co2118     N2158   2.141       .  S
Co2118     N2134   2.106       .  S
N2119      C2157   1.335       .  A
N2119     Co2120   2.084       .  S
Co2120     N2123   2.175       .  S
Co2120     N2140   2.099       .  S
Co2120     N2127   2.156       .  S
Co2120    Cl2162   2.445       .  S
C2121      N2159   1.373       .  A
N2122      N2152   1.313       .  A
N2122     Co2155   2.023       .  S
N2123      N2141   1.315       .  A
N2123      N2159   1.340       .  A
N2124      N2134   1.326       .  A
H2125      C2150   1.082       .  S
N2126      N2147   1.325       .  A
N2127      N2145   1.314       .  A
N2127      N2132   1.339       .  A
C2128      C2156   1.431       .  S
C2128      N2132   1.370       .  A
N2129      C2144   1.325       .  A
N2129     Co2151   2.030       .  S
C2130      C2133   1.479       .  S
C2130      N2158   1.352       .  A
C2130      H2164   1.081       .  S
C2133      N2154   1.333       .  A
N2135      C2161   1.330       .  A
N2135     Co2151   2.031       .  S
N2136      C2150   1.360       .  A
N2137      N2165   1.310       .  A
N2137     Co2155   2.027       .  S
H2138      C2161   1.079       .  S
H2139      C2156   1.081       .  S
N2141     Co2155   2.030       .  S
N2142      N2154   1.321       .  A
N2142      N2158   1.317       .  A
N2142     Co2151   2.032       .  S
C2143      N2147   1.348   1_554  A
C2144      H2148   1.075       .  S
N2145      C2156   1.330       .  A
N2145     Co2155   2.024       .  S
C2149      C2398   1.418       .  S
C2149      N2165   1.337       .  A
N2152      C2163   1.338       .  A
C2153      C2287   1.467       .  S
Co2155    Cl2162   2.438       .  S
C2163      C2202   1.417       .  S
C2166      C2203   1.489       .  S
C2166      N2184   1.331       .  A
N2167      N2184   1.321       .  A
N2167      N2189   1.318       .  A
N2167     Co2204   2.027       .  S
C2168      C2206   1.457       .  S
C2168      N2193   1.341       .  A
C2168      H2213   1.081       .  S
H2169      C2210   1.081       .  S
C2170      C2174   1.432       .  S
C2170      N2194   1.334       .  A
C2170      H2199   1.081       .  S
Co2171     N2189   2.170       .  S
Co2171     N2179   2.114       .  S
Co2171     N2211   2.165       .  S
Co2171     N2187   2.121       .  S
N2172      C2210   1.344       .  A
N2172     Co2173   2.112       .  S
Co2173     N2176   2.177       .  S
Co2173     N2193   2.107       .  S
Co2173     N2180   2.180       .  S
Co2173    Cl2215   2.446       .  S
C2174      N2212   1.374       .  A
N2175      N2205   1.310       .  A
N2175     Co2208   2.015       .  S
N2176      N2194   1.314       .  A
N2176      N2212   1.340       .  A
N2177      N2187   1.331       .  A
H2178      C2203   1.081       .  S
N2179      N2200   1.328       .  A
N2180      N2198   1.314       .  A
N2180      N2185   1.340       .  A
C2181      C2209   1.429       .  S
C2181      N2185   1.374       .  A
N2182      C2197   1.329       .  A
N2182     Co2204   2.026       .  S
C2183      C2186   1.490       .  S
C2183      N2211   1.360       .  A
C2183      H2217   1.082       .  S
C2186      N2207   1.328       .  A
N2188      C2214   1.325       .  A
N2188     Co2204   2.026       .  S
N2189      C2203   1.359       .  A
N2190      N2218   1.313       .  A
N2190     Co2208   2.026       .  S
H2191      C2214   1.075       .  S
H2192      C2209   1.081       .  S
N2194     Co2208   2.026       .  S
N2195      N2207   1.319       .  A
N2195      N2211   1.317       .  A
N2195     Co2204   2.026       .  S
C2196      C2210   1.460       .  S
C2196      C2685   1.477   1_545  S
C2197      H2201   1.079       .  S
N2198      C2209   1.332       .  A
N2198     Co2208   2.018       .  S
C2202      N2218   1.339       .  A
N2205      C2216   1.336       .  A
Co2208    Cl2215   2.441       .  S
C2216      C2378   1.412       .  S
C2219      C2256   1.478       .  S
C2219      N2237   1.336       .  A
N2220      N2237   1.323       .  A
N2220      N2242   1.317       .  A
N2220     Co2257   2.040       .  S
C2221      C2259   1.450       .  S
C2221      N2246   1.335       .  A
C2221      H2266   1.081       .  S
H2222      C2263   1.081       .  S
C2223      C2227   1.436       .  S
C2223      N2247   1.333       .  A
C2223      H2252   1.081       .  S
Co2224     N2242   2.136       .  S
Co2224     N2232   2.086       .  S
Co2224     N2264   2.130       .  S
Co2224     N2240   2.095       .  S
N2225      C2263   1.338       .  A
N2225     Co2226   2.089       .  S
Co2226     N2229   2.152       .  S
Co2226     N2246   2.085       .  S
Co2226     N2233   2.154       .  S
Co2226    Cl2268   2.440       .  S
C2227      N2265   1.369       .  A
N2228      N2258   1.310       .  A
N2228     Co2261   2.025       .  S
N2229      N2247   1.314       .  A
N2229      N2265   1.338       .  A
N2230      N2240   1.325       .  A
H2231      C2256   1.081       .  S
N2232      N2253   1.322       .  A
N2233      N2251   1.314       .  A
N2233      N2238   1.338       .  A
C2234      C2262   1.434       .  S
C2234      N2238   1.369       .  A
N2235      C2250   1.330       .  A
N2235     Co2257   2.033       .  S
C2236      C2239   1.478       .  S
C2236      N2264   1.352       .  A
C2236      H2270   1.082       .  S
C2239      N2260   1.334       .  A
N2241      C2267   1.326       .  A
N2241     Co2257   2.029       .  S
N2242      C2256   1.352       .  A
N2243      N2271   1.313       .  A
N2243     Co2261   2.035       .  S
H2244      C2267   1.078       .  S
H2245      C2262   1.081       .  S
N2247     Co2261   2.034       .  S
N2248      N2260   1.322       .  A
N2248      N2264   1.316       .  A
N2248     Co2257   2.042       .  S
C2249      C2263   1.453       .  S
C2249      C3196   1.450       .  S
C2250      H2254   1.080       .  S
N2251      C2262   1.331       .  A
N2251     Co2261   2.026       .  S
C2255      C2375   1.419       .  S
C2255      N2271   1.339       .  A
N2258      C2269   1.336       .  A
Co2261    Cl2268   2.439       .  S
C2269      C2272   1.415       .  S
C2272      C2309   1.448       .  S
N2273      N2290   1.311       .  A
N2273     Co2310   2.019       .  S
C2274      C2312   1.489       .  S
C2274      N2299   1.360       .  A
C2274      H2319   1.081       .  S
H2275      C2316   1.081       .  S
C2276      C2280   1.461   1_556  S
C2276      N2300   1.346       .  A
C2276      H2305   1.081       .  S
Co2277     N2295   2.032       .  S
Co2277     N2285   2.035       .  S
Co2277     N2317   2.033       .  S
Co2277     N2293   2.036       .  S
Co2277    Cl2321   2.462       .  S
N2278      C2316   1.359       .  A
N2278      N2285   1.317       .  A
N2278     Co2279   2.154       .  S
Co2279     N2282   2.108       .  S
Co2279     N2299   2.165       .  S
Co2279     N2286   2.104       .  S
Co2279    Cl2321   2.435       .  S
C2280      C2601   1.477       .  S
N2281      N2288   1.315       .  A
N2281      N2311   1.334       .  A
N2281     Co2314   2.148       .  S
N2282      N2318   1.327       .  A
N2283      C2312   1.332       .  A
N2283      N2293   1.321       .  A
H2284      C2309   1.080       .  S
N2285      N2306   1.319       .  A
N2286      N2291   1.325       .  A
C2287      N2291   1.349       .  A
N2288      C2303   1.335       .  A
N2288     Co2310   2.031       .  S
C2289      C2292   1.447       .  S
C2289      N2317   1.330       .  A
C2289      H2323   1.079       .  S
C2292      C2361   1.415       .  S
N2293      N2299   1.318       .  A
N2294      C2320   1.333       .  A
N2294      N2296   1.314       .  A
N2294     Co2310   2.019       .  S
N2295      C2309   1.329       .  A
N2296      N2324   1.339       .  A
N2296     Co2314   2.175       .  S
H2297      C2320   1.081       .  S
H2298      C2315   1.082       .  S
N2300     Co2314   2.113       .  S
N2301      N2313   1.311       .  A
N2301     Co2310   2.027       .  S
C2302      C2316   1.484       .  S
C2302      N2306   1.333       .  A
C2303      C2322   1.436       .  S
C2303      H2307   1.081       .  S
N2304      C2315   1.342       .  A
N2304     Co2314   2.101       .  S
C2308      C2320   1.428       .  S
C2308      N2324   1.374       .  A
N2311      C2322   1.366       .  A
C2325      C2362   1.479       .  S
C2325      N2343   1.333       .  A
N2326      N2343   1.322       .  A
N2326      N2348   1.317       .  A
N2326     Co2363   2.038       .  S
C2327      C2365   1.459       .  S
C2327      N2352   1.343       .  A
C2327      H2372   1.081       .  S
H2328      C2369   1.081       .  S
C2329      C2333   1.432       .  S
C2329      N2353   1.331       .  A
C2329      H2358   1.081       .  S
Co2330     N2348   2.139       .  S
Co2330     N2338   2.120       .  S
Co2330     N2370   2.169       .  S
Co2330     N2346   2.099       .  S
N2331      C2369   1.341       .  A
N2331     Co2332   2.103       .  S
Co2332     N2335   2.166       .  S
Co2332     N2352   2.106       .  S
Co2332     N2339   2.175       .  S
Co2332    Cl2374   2.447       .  S
C2333      N2371   1.371       .  A
N2334      N2364   1.314       .  A
N2334     Co2367   2.033       .  S
N2335      N2353   1.315       .  A
N2335      N2371   1.339       .  A
N2336      N2346   1.325       .  A
H2337      C2362   1.081       .  S
N2338      N2359   1.331       .  A
N2339      N2357   1.315       .  A
N2339      N2344   1.340       .  A
C2340      C2368   1.431       .  S
C2340      N2344   1.374       .  A
N2341      C2356   1.325       .  A
N2341     Co2363   2.020       .  S
C2342      C2345   1.490       .  S
C2342      N2370   1.360       .  A
C2342      H2376   1.082       .  S
C2345      N2366   1.329       .  A
N2347      C2373   1.330       .  A
N2347     Co2363   2.037       .  S
N2348      C2362   1.352       .  A
N2349      N2377   1.311       .  A
N2349     Co2367   2.023       .  S
H2350      C2373   1.078       .  S
H2351      C2368   1.081       .  S
N2353     Co2367   2.023       .  S
N2354      N2366   1.320       .  A
N2354      N2370   1.318       .  A
N2354     Co2363   2.025       .  S
C2355      C2369   1.457       .  S
C2356      H2360   1.078       .  S
N2357      C2368   1.334       .  A
N2357     Co2367   2.028       .  S
C2361      N2377   1.336       .  A
N2364      C2375   1.340       .  A
C2365      C2393   1.467       .  S
Co2367    Cl2374   2.437       .  S
C2378      C2415   1.445       .  S
N2379      N2396   1.310       .  A
N2379     Co2416   2.022       .  S
C2380      C2418   1.483       .  S
C2380      N2405   1.358       .  A
C2380      H2425   1.081       .  S
H2381      C2422   1.081       .  S
C2382      N2406   1.338       .  A
C2382      H2411   1.082       .  S
Co2383     N2401   2.027       .  S
Co2383     N2391   2.042       .  S
Co2383     N2423   2.036       .  S
Co2383     N2399   2.030       .  S
Co2383    Cl2427   2.470       .  S
N2384      C2422   1.359       .  A
N2384      N2391   1.316       .  A
N2384     Co2385   2.160       .  S
Co2385     N2388   2.089       .  S
Co2385     N2405   2.144       .  S
Co2385     N2392   2.101       .  S
Co2385    Cl2427   2.424       .  S
C2386      C3059   1.450   1_545  S
C2386      N2424   1.344       .  A
N2387      N2394   1.314       .  A
N2387      N2417   1.339       .  A
N2387     Co2420   2.172       .  S
N2388      N2424   1.322       .  A
N2389      C2418   1.332       .  A
N2389      N2399   1.318       .  A
H2390      C2415   1.078       .  S
N2391      N2412   1.323       .  A
N2392      N2397   1.325       .  A
C2393      N2397   1.347       .  A
N2394      C2409   1.336       .  A
N2394     Co2416   2.028       .  S
C2395      C2398   1.449       .  S
C2395      N2423   1.330       .  A
C2395      H2429   1.079       .  S
N2399      N2405   1.315       .  A
N2400      C2426   1.333       .  A
N2400      N2402   1.313       .  A
N2400     Co2416   2.024       .  S
N2401      C2415   1.329       .  A
N2402      N2430   1.334       .  A
N2402     Co2420   2.142       .  S
H2403      C2426   1.081       .  S
H2404      C2421   1.081       .  S
N2406     Co2420   2.092       .  S
N2407      N2419   1.311       .  A
N2407     Co2416   2.025       .  S
C2408      C2422   1.487       .  S
C2408      N2412   1.334       .  A
C2409      C2428   1.432       .  S
C2409      H2413   1.081       .  S
N2410      C2421   1.343       .  A
N2410     Co2420   2.110       .  S
C2414      C2426   1.434       .  S
C2414      N2430   1.366       .  A
N2417      C2428   1.374       .  A
O2431      C2439   1.308       .  A
O2431     Co2451   2.132       .  S
O2432      C2440   1.268       .  A
O2433      C2441   1.241       .  A
O2433     Co2453   1.980       .  S
O2434      C2442   1.255       .  A
O2435      C2441   1.267       .  A
O2436      C2442   1.307       .  A
O2436     Co2451   2.120       .  S
O2437      C2440   1.239       .  A
O2438      C2439   1.252       .  A
O2438     Co2453   1.887       .  S
C2439      C2624   1.476       .  S
C2440      C2707   1.483       .  S
C2441      C2632   1.484       .  S
C2442      C2727   1.475       .  S
O2443      C2456   1.280       .  A
O2444      C2457   1.288       .  A
O2444     Co2452   2.058       .  S
O2445      C2458   1.263       .  A
O2446      C2459   1.288       .  A
O2446     Co2454   2.032       .  S
O2447      C2459   1.287       .  A
O2447     Co2452   2.047       .  S
O2448      C2458   1.281       .  A
O2449      C2456   1.259       .  A
O2449     Co2454   1.954       .  S
O2450      C2457   1.284       .  A
Co2451     O2455   2.214   1_565  S
Co2453     O2455   1.982   1_565  S
C2456      C2571   1.485       .  S
C2457      C2813   1.490       .  S
C2458      C2833   1.486       .  S
C2459      C2579   1.488       .  S
O2460      C2468   1.282       .  A
O2461      C2469   1.286       .  A
O2462      C2470   1.285       .  A
O2463      C2471   1.260       .  A
O2464      C2470   1.287       .  A
O2465      C2471   1.282       .  A
O2466      C2469   1.285       .  A
O2467      C2468   1.261       .  A
C2468      C2518   1.489       .  S
C2469      C2586   1.486       .  S
C2470      C2526   1.489       .  S
C2471      C2591   1.483       .  S
O2472      C2485   1.310       .  A
O2472     Co2480   2.135       .  S
O2473      C2486   1.267       .  A
O2473     Co2481   2.028       .  S
O2474      C2487   1.252       .  A
O2474     Co2482   1.886       .  S
O2475      C2488   1.239       .  A
O2475     Co2483   1.977       .  S
O2476      C2488   1.268       .  A
O2476     Co2481   2.033       .  S
O2477      C2487   1.309       .  A
O2477     Co2480   2.131       .  S
O2478      C2485   1.251       .  A
O2478     Co2483   1.883       .  S
O2479      C2486   1.240       .  A
O2479     Co2482   1.977       .  S
Co2480     O2484   2.217       .  S
Co2481     O2484   2.085       .  S
Co2482     O2484   1.978       .  S
Co2483     O2484   1.978       .  S
C2485      C2730   1.475       .  S
C2486      C2639   1.481       .  S
C2487      C2644   1.475       .  S
C2488      C2738   1.483       .  S
O2489      C2497   1.306       .  A
O2489     Co2509   2.116       .  S
O2490      C2498   1.268       .  A
O2490     Co2510   2.029       .  S
O2491      C2499   1.237       .  A
O2491     Co2511   1.968       .  S
O2492      C2500   1.251       .  A
O2492     Co2512   1.887       .  S
O2493      C2499   1.268       .  A
O2493     Co2510   2.039       .  S
O2494      C2500   1.307       .  A
O2494     Co2509   2.129       .  S
O2495      C2498   1.240       .  A
O2495     Co2512   1.977       .  S
O2496      C2497   1.254       .  A
O2496     Co2511   1.895       .  S
C2497      C2819   1.472       .  S
C2498      C2533   1.480       .  S
C2499      C2823   1.478       .  S
C2500      C2538   1.474       .  S
O2501      C2514   1.281       .  A
O2501     Co2509   2.068       .  S
O2502      C2515   1.288       .  A
O2502     Co2510   2.049       .  S
O2503      C2516   1.259       .  A
O2503     Co2511   1.950       .  S
O2504      C2517   1.284       .  A
O2504     Co2512   2.019       .  S
O2505      C2517   1.288       .  A
O2505     Co2510   2.057       .  S
O2506      C2516   1.281       .  A
O2506     Co2509   2.076       .  S
O2507      C2514   1.261       .  A
O2507     Co2512   1.955       .  S
O2508      C2515   1.287       .  A
O2508     Co2511   2.030       .  S
Co2509     O2513   2.211       .  S
Co2510     O2513   2.085       .  S
Co2511     O2513   1.980       .  S
Co2512     O2513   1.982       .  S
C2514      C2713   1.482       .  S
C2515      C2745   1.488       .  S
C2516      C2750   1.484       .  S
C2517      C2717   1.489       .  S
C2518      C2555   1.490       .  S
C2518      N2536   1.331       .  A
N2519      N2536   1.322       .  A
N2519      N2541   1.317       .  A
N2519     Co2556   2.039       .  S
C2520      C2558   1.456       .  S
C2520      N2545   1.342       .  A
C2520      H2565   1.081       .  S
H2521      C2562   1.081       .  S
C2522      C2526   1.433       .  S
C2522      N2546   1.335       .  A
C2522      H2551   1.081       .  S
Co2523     N2541   2.164       .  S
Co2523     N2531   2.095       .  S
Co2523     N2563   2.141       .  S
Co2523     N2539   2.106       .  S
Co2523    Cl2972   2.438       .  S
N2524      C2562   1.335       .  A
N2524      N2936   1.328   1_554  A
N2524     Co2525   2.084       .  S
Co2525     N2528   2.175       .  S
Co2525     N2545   2.099       .  S
Co2525     N2532   2.156       .  S
Co2525    Cl2567   2.445       .  S
C2526      N2564   1.373       .  A
N2527      N2939   1.310   1_554  A
N2527      N2557   1.313       .  A
N2527     Co2560   2.023       .  S
N2528      N2546   1.315       .  A
N2528      N2564   1.340       .  A
N2529      C2963   1.349       .  A
N2529      N2539   1.326       .  A
H2530      C2555   1.082       .  S
N2531      N2929   1.328       .  A
N2531      N2552   1.325       .  A
N2532      N2550   1.314       .  A
N2532      N2537   1.339       .  A
C2533      C2561   1.431       .  S
C2533      N2537   1.370       .  A
N2534      C2549   1.325       .  A
N2534      N2932   1.310       .  A
N2534     Co2556   2.030       .  S
C2535      C2538   1.479       .  S
C2535      N2563   1.352       .  A
C2535      H2569   1.081       .  S
C2538      N2559   1.333       .  A
N2539      N2950   1.328       .  A
N2540      C2566   1.330       .  A
N2540      N2947   1.310       .  A
N2540     Co2556   2.031       .  S
N2541      C2555   1.360       .  A
N2542      N2945   1.310   1_554  A
N2542      N2570   1.310       .  A
N2542     Co2560   2.027       .  S
H2543      C2566   1.079       .  S
H2544      C2561   1.081       .  S
N2545      N2944   1.328   1_554  A
N2546     Co2560   2.030       .  S
N2547      N2559   1.321       .  A
N2547      N2563   1.317       .  A
N2547     Co2556   2.032       .  S
C2548      C2967   1.450       .  S
C2548      N2552   1.348       .  A
C2549      C2973   1.443       .  S
C2549      H2553   1.075       .  S
N2550      C2561   1.330       .  A
N2550     Co2560   2.024       .  S
C2554      C2971   1.448   1_554  S
C2554      C2803   1.418       .  S
C2554      N2570   1.337       .  A
Co2556    Cl2972   2.455       .  S
N2557      C2568   1.338       .  A
C2558      C2692   1.467       .  S
C2558      N2934   1.349   1_554  A
Co2560    Cl2567   2.438       .  S
C2562      C2953   1.450       .  S
C2566      C2959   1.448       .  S
Cl2567    Co2928   2.438   1_554  S
Cl2567    Co2961   2.455   1_554  S
C2568      C2954   1.443   1_554  S
C2568      C2607   1.417       .  S
C2571      C2608   1.489       .  S
C2571      N2589   1.331       .  A
N2572      N2589   1.321       .  A
N2572      N2594   1.318       .  A
N2572     Co2609   2.027       .  S
C2573      C2611   1.457       .  S
C2573      N2598   1.341       .  A
C2573      H2618   1.081       .  S
H2574      C2615   1.081       .  S
C2575      C2579   1.432       .  S
C2575      N2599   1.334       .  A
C2575      H2604   1.081       .  S
Co2576     N2594   2.170       .  S
Co2576     N2584   2.114       .  S
Co2576     N2616   2.165       .  S
Co2576     N2592   2.121       .  S
Co2576    Cl3025   2.444       .  S
N2577      C2615   1.344       .  A
N2577      N2989   1.329   1_554  A
N2577     Co2578   2.112       .  S
Co2578     N2581   2.177       .  S
Co2578     N2598   2.107       .  S
Co2578     N2585   2.180       .  S
Co2578    Cl2620   2.446       .  S
C2579      N2617   1.374       .  A
N2580      N2992   1.309   1_554  A
N2580      N2610   1.310       .  A
N2580     Co2613   2.015       .  S
N2581      N2599   1.314       .  A
N2581      N2617   1.340       .  A
N2582      C3016   1.354       .  A
N2582      N2592   1.331       .  A
H2583      C2608   1.081       .  S
N2584      N2982   1.329       .  A
N2584      N2605   1.328       .  A
N2585      N2603   1.314       .  A
N2585      N2590   1.340       .  A
C2586      C2614   1.429       .  S
C2586      N2590   1.374       .  A
N2587      C2602   1.329       .  A
N2587      N2985   1.309       .  A
N2587     Co2609   2.026       .  S
C2588      C2591   1.490       .  S
C2588      N2616   1.360       .  A
C2588      H2622   1.082       .  S
C2591      N2612   1.328       .  A
N2592      N3003   1.329       .  A
N2593      C2619   1.325       .  A
N2593      N3000   1.309       .  A
N2593     Co2609   2.026       .  S
N2594      C2608   1.359       .  A
N2595      N2998   1.309   1_554  A
N2595      N2623   1.313       .  A
N2595     Co2613   2.026       .  S
H2596      C2619   1.075       .  S
H2597      C2614   1.081       .  S
N2598      N2997   1.329   1_554  A
N2599     Co2613   2.026       .  S
N2600      N2612   1.319       .  A
N2600      N2616   1.317       .  A
N2600     Co2609   2.026       .  S
C2601      C2615   1.460       .  S
C2601      N3010   1.351   1_554  A
C2602      C3026   1.445       .  S
C2602      H2606   1.079       .  S
N2603      C2614   1.332       .  A
N2603     Co2613   2.018       .  S
N2605      C3006   1.351       .  A
C2607      C3024   1.442   1_554  S
C2607      N2623   1.339       .  A
Co2609    Cl3025   2.453       .  S
N2610      C2621   1.336       .  A
C2611      N2987   1.354   1_554  A
Co2613    Cl2620   2.441       .  S
C2619      C3012   1.442       .  S
Cl2620    Co2981   2.444   1_554  S
Cl2620    Co3014   2.453   1_554  S
C2621      C3007   1.445   1_554  S
C2621      C2783   1.412       .  S
C2624      C2661   1.478       .  S
C2624      N2642   1.336       .  A
N2625      N2642   1.323       .  A
N2625      N2647   1.317       .  A
N2625     Co2662   2.040       .  S
C2626      C2664   1.450       .  S
C2626      N2651   1.335       .  A
C2626      H2671   1.081       .  S
H2627      C2668   1.081       .  S
C2628      C2632   1.436       .  S
C2628      N2652   1.333       .  A
C2628      H2657   1.081       .  S
Co2629     N2647   2.136       .  S
Co2629     N2637   2.086       .  S
Co2629     N2669   2.130       .  S
Co2629     N2645   2.095       .  S
Co2629    Cl3078   2.430       .  S
N2630      C2668   1.338       .  A
N2630      N3042   1.327   1_554  A
N2630     Co2631   2.089       .  S
Co2631     N2634   2.152       .  S
Co2631     N2651   2.085       .  S
Co2631     N2638   2.154       .  S
Co2631    Cl2673   2.440       .  S
C2632      N2670   1.369       .  A
N2633      N3045   1.311   1_554  A
N2633      N2663   1.310       .  A
N2633     Co2666   2.025       .  S
N2634      N2652   1.314       .  A
N2634      N2670   1.338       .  A
N2635      C3069   1.347       .  A
N2635      N2645   1.325       .  A
H2636      C2661   1.081       .  S
N2637      N3035   1.327       .  A
N2637      N2658   1.322       .  A
N2638      N2656   1.314       .  A
N2638      N2643   1.338       .  A
C2639      C2667   1.434       .  S
C2639      N2643   1.369       .  A
N2640      C2655   1.330       .  A
N2640      N3038   1.311       .  A
N2640     Co2662   2.033       .  S
C2641      C2644   1.478       .  S
C2641      N2669   1.352       .  A
C2641      H2675   1.082       .  S
C2644      N2665   1.334       .  A
N2645      N3056   1.327       .  A
N2646      C2672   1.326       .  A
N2646      N3053   1.311       .  A
N2646     Co2662   2.029       .  S
N2647      C2661   1.352       .  A
N2648      N3051   1.311   1_554  A
N2648      N2676   1.313       .  A
N2648     Co2666   2.035       .  S
H2649      C2672   1.078       .  S
H2650      C2667   1.081       .  S
N2651      N3050   1.327   1_554  A
N2652     Co2666   2.034       .  S
N2653      N2665   1.322       .  A
N2653      N2669   1.316       .  A
N2653     Co2662   2.042       .  S
C2654      C2668   1.453       .  S
C2654      N3063   1.344   1_554  A
C2655      C3079   1.448       .  S
C2655      H2659   1.080       .  S
N2656      C2667   1.331       .  A
N2656     Co2666   2.026       .  S
N2658      C3059   1.344       .  A
C2660      C3077   1.445   1_554  S
C2660      C2780   1.419       .  S
C2660      N2676   1.339       .  A
Co2662    Cl3078   2.457       .  S
N2663      C2674   1.336       .  A
C2664      N3040   1.347   1_554  A
Co2666    Cl2673   2.439       .  S
C2672      C3065   1.445       .  S
Cl2673    Co3034   2.430   1_554  S
Cl2673    Co3067   2.457   1_554  S
C2674      C3060   1.448   1_554  S
C2674      C2677   1.415       .  S
C2677      C2714   1.448       .  S
C2677      N3100   1.336   1_554  A
N2678      N2695   1.311       .  A
N2678      N3105   1.309       .  A
N2678     Co2715   2.019       .  S
C2679      C2717   1.489       .  S
C2679      N2704   1.360       .  A
C2679      H2724   1.081       .  S
H2680      C2721   1.081       .  S
C2681      C2685   1.461       .  S
C2681      N2705   1.346       .  A
C2681      H2710   1.081       .  S
Co2682     N2700   2.032       .  S
Co2682     N2690   2.035       .  S
Co2682     N2722   2.033       .  S
Co2682     N2698   2.036       .  S
Co2682    Cl2726   2.462       .  S
N2683      C2721   1.359       .  A
N2683      N2690   1.317       .  A
N2683     Co2684   2.154       .  S
Co2684     N2687   2.108       .  S
Co2684     N2704   2.165       .  S
Co2684     N2691   2.104       .  S
Co2684    Cl2726   2.435       .  S
C2685      N3128   1.350       .  A
N2686      N2693   1.315       .  A
N2686      N2716   1.334       .  A
N2686     Co2719   2.148       .  S
N2687      N3110   1.328   1_554  A
N2687      N2723   1.327       .  A
N2688      C2717   1.332       .  A
N2688      N2698   1.321       .  A
H2689      C2714   1.080       .  S
N2690      N2711   1.319       .  A
N2691      N3114   1.328   1_554  A
N2691      N2696   1.325       .  A
C2692      C3125   1.457   1_554  S
C2692      N2696   1.349       .  A
N2693      C2708   1.335       .  A
N2693     Co2715   2.031       .  S
C2694      C2697   1.447       .  S
C2694      N2722   1.330       .  A
C2694      H2728   1.079       .  S
N2695      C3082   1.336       .  A
C2697      C2766   1.415       .  S
C2697      N3123   1.336   1_554  A
N2698      N2704   1.318       .  A
N2699      C2725   1.333       .  A
N2699      N2701   1.314       .  A
N2699     Co2715   2.019       .  S
N2700      C2714   1.329       .  A
N2700      N3083   1.309   1_554  A
N2701      N2729   1.339       .  A
N2701     Co2719   2.175       .  S
H2702      C2725   1.081       .  S
H2703      C2720   1.082       .  S
N2705      N3092   1.328       .  A
N2705     Co2719   2.113       .  S
N2706      N2718   1.311       .  A
N2706      N3127   1.310       .  A
N2706     Co2715   2.027       .  S
C2707      C2721   1.484       .  S
C2707      N2711   1.333       .  A
C2708      C2727   1.436       .  S
C2708      H2712   1.081       .  S
N2709      C2720   1.342       .  A
N2709      N3096   1.328       .  A
N2709     Co2719   2.101       .  S
C2713      C2725   1.428       .  S
C2713      N2729   1.374       .  A
Co2715    Cl3131   2.427       .  S
N2716      C2727   1.366       .  A
N2718      C3102   1.336       .  A
Co2719    Cl3131   2.453       .  S
C2720      C3097   1.457       .  S
N2722      N3111   1.310   1_554  A
N2723      C3090   1.350       .  A
Cl2726    Co3120   2.427   1_554  S
Cl2726    Co3124   2.453   1_554  S
C2730      C2767   1.479       .  S
C2730      N2748   1.333       .  A
N2731      N2748   1.322       .  A
N2731      N2753   1.317       .  A
N2731     Co2768   2.038       .  S
C2732      C2770   1.459       .  S
C2732      N2757   1.343       .  A
C2732      H2777   1.081       .  S
H2733      C2774   1.081       .  S
C2734      C2738   1.432       .  S
C2734      N2758   1.331       .  A
C2734      H2763   1.081       .  S
Co2735     N2753   2.139       .  S
Co2735     N2743   2.120       .  S
Co2735     N2775   2.169       .  S
Co2735     N2751   2.099       .  S
Co2735    Cl3184   2.441       .  S
N2736      C2774   1.341       .  A
N2736      N3148   1.328   1_554  A
N2736     Co2737   2.103       .  S
Co2737     N2740   2.166       .  S
Co2737     N2757   2.106       .  S
Co2737     N2744   2.175       .  S
Co2737    Cl2779   2.447       .  S
C2738      N2776   1.371       .  A
N2739      N3151   1.309   1_554  A
N2739      N2769   1.314       .  A
N2739     Co2772   2.033       .  S
N2740      N2758   1.315       .  A
N2740      N2776   1.339       .  A
N2741      C3175   1.348       .  A
N2741      N2751   1.325       .  A
H2742      C2767   1.081       .  S
N2743      N3141   1.328       .  A
N2743      N2764   1.331       .  A
N2744      N2762   1.315       .  A
N2744      N2749   1.340       .  A
C2745      C2773   1.431       .  S
C2745      N2749   1.374       .  A
N2746      C2761   1.325       .  A
N2746      N3144   1.309       .  A
N2746     Co2768   2.020       .  S
C2747      C2750   1.490       .  S
C2747      N2775   1.360       .  A
C2747      H2781   1.082       .  S
C2750      N2771   1.329       .  A
N2751      N3162   1.328       .  A
N2752      C2778   1.330       .  A
N2752      N3159   1.310       .  A
N2752     Co2768   2.037       .  S
N2753      C2767   1.352       .  A
N2754      N3157   1.310   1_554  A
N2754      N2782   1.311       .  A
N2754     Co2772   2.023       .  S
H2755      C2778   1.078       .  S
H2756      C2773   1.081       .  S
N2757      N3156   1.328   1_554  A
N2758     Co2772   2.023       .  S
N2759      N2771   1.320       .  A
N2759      N2775   1.318       .  A
N2759     Co2768   2.025       .  S
C2760      C2774   1.457       .  S
C2760      N3169   1.354   1_554  A
C2761      C3185   1.443       .  S
C2761      H2765   1.078       .  S
N2762      C2773   1.334       .  A
N2762     Co2772   2.028       .  S
N2764      C3165   1.354       .  A
C2766      C3183   1.447   1_554  S
C2766      N2782   1.336       .  A
Co2768    Cl3184   2.455       .  S
N2769      C2780   1.340       .  A
C2770      C2798   1.467       .  S
C2770      N3146   1.348   1_554  A
Co2772    Cl2779   2.437       .  S
C2778      C3171   1.447       .  S
Cl2779    Co3140   2.441   1_554  S
Cl2779    Co3173   2.455   1_554  S
C2780      C3166   1.443   1_554  S
C2783      C2820   1.445       .  S
C2783      N3206   1.336   1_554  A
N2784      N2801   1.310       .  A
N2784      N3211   1.310       .  A
N2784     Co2821   2.022       .  S
C2785      C2823   1.483       .  S
C2785      N2810   1.358       .  A
C2785      H2830   1.081       .  S
H2786      C2827   1.081       .  S
C2787      C3196   1.453       .  S
C2787      N2811   1.338       .  A
C2787      H2816   1.082       .  S
Co2788     N2806   2.027       .  S
Co2788     N2796   2.042       .  S
Co2788     N2828   2.036       .  S
Co2788     N2804   2.030       .  S
Co2788    Cl2832   2.470       .  S
N2789      C2827   1.359       .  A
N2789      N2796   1.316       .  A
N2789     Co2790   2.160       .  S
Co2790     N2793   2.089       .  S
Co2790     N2810   2.144       .  S
Co2790     N2797   2.101       .  S
Co2790    Cl2832   2.424       .  S
C2791      C3192   1.453   1_554  S
C2791      N2829   1.344       .  A
N2792      N2799   1.314       .  A
N2792      N2822   1.339       .  A
N2792     Co2825   2.172       .  S
N2793      N3216   1.329   1_554  A
N2793      N2829   1.322       .  A
N2794      C2823   1.332       .  A
N2794      N2804   1.318       .  A
H2795      C2820   1.078       .  S
N2796      N2817   1.323       .  A
N2797      N3220   1.329   1_554  A
N2797      N2802   1.325       .  A
C2798      C3231   1.458   1_554  S
C2798      N2802   1.347       .  A
N2799      C2814   1.336       .  A
N2799     Co2821   2.028       .  S
C2800      C2803   1.449       .  S
C2800      N2828   1.330       .  A
C2800      H2834   1.079       .  S
N2801      C3188   1.336       .  A
C2803      N3229   1.337   1_554  A
N2804      N2810   1.315       .  A
N2805      C2831   1.333       .  A
N2805      N2807   1.313       .  A
N2805     Co2821   2.024       .  S
N2806      C2820   1.329       .  A
N2806      N3189   1.310   1_554  A
N2807      N2835   1.334       .  A
N2807     Co2825   2.142       .  S
H2808      C2831   1.081       .  S
H2809      C2826   1.081       .  S
N2811      N3198   1.329       .  A
N2811     Co2825   2.092       .  S
N2812      N2824   1.311       .  A
N2812      N3233   1.310       .  A
N2812     Co2821   2.025       .  S
C2813      C2827   1.487       .  S
C2813      N2817   1.334       .  A
C2814      C2833   1.432       .  S
C2814      H2818   1.081       .  S
N2815      C2826   1.343       .  A
N2815      N3202   1.329       .  A
N2815     Co2825   2.110       .  S
C2819      C2831   1.434       .  S
C2819      N2835   1.366       .  A
Co2821    Cl3237   2.431       .  S
N2822      C2833   1.374       .  A
N2824      C3208   1.337       .  A
Co2825    Cl3237   2.446       .  S
C2826      C3203   1.458       .  S
N2828      N3217   1.310   1_554  A
Cl2832    Co3226   2.431   1_554  S
Cl2832    Co3230   2.446   1_554  S
O2836      C2844   1.308       .  A
O2836     Co2856   2.132       .  S
O2837      C2845   1.268       .  A
O2838      C2846   1.241       .  A
O2838     Co2858   1.980       .  S
O2839      C2847   1.255       .  A
O2840      C2846   1.267       .  A
O2841      C2847   1.307       .  A
O2841     Co2856   2.120       .  S
O2842      C2845   1.239       .  A
O2843      C2844   1.252       .  A
O2843     Co2858   1.887       .  S
C2844      C3029   1.476       .  S
C2845      C3112   1.483       .  S
C2846      C3037   1.484       .  S
C2847      C3132   1.475       .  S
O2848      C2861   1.280       .  A
O2849      C2862   1.288       .  A
O2849     Co2857   2.058       .  S
O2850      C2863   1.263       .  A
O2851      C2864   1.288       .  A
O2851     Co2859   2.032       .  S
O2852      C2864   1.287       .  A
O2852     Co2857   2.047       .  S
O2853      C2863   1.281       .  A
O2854      C2861   1.259       .  A
O2854     Co2859   1.954       .  S
O2855      C2862   1.284       .  A
Co2856     O2860   2.214   1_565  S
Co2858     O2860   1.982   1_565  S
C2861      C2976   1.485       .  S
C2862      C3218   1.490       .  S
C2863      C3238   1.486       .  S
C2864      C2984   1.488       .  S
O2865      C2873   1.282       .  A
O2866      C2874   1.286       .  A
O2867      C2875   1.285       .  A
O2868      C2876   1.260       .  A
O2869      C2875   1.287       .  A
O2870      C2876   1.282       .  A
O2871      C2874   1.285       .  A
O2872      C2873   1.261       .  A
C2873      C2923   1.489       .  S
C2874      C2991   1.486       .  S
C2875      C2931   1.489       .  S
C2876      C2996   1.483       .  S
O2877      C2890   1.310       .  A
O2877     Co2885   2.135       .  S
O2878      C2891   1.267       .  A
O2878     Co2886   2.028       .  S
O2879      C2892   1.252       .  A
O2879     Co2887   1.886       .  S
O2880      C2893   1.239       .  A
O2880     Co2888   1.977       .  S
O2881      C2893   1.268       .  A
O2881     Co2886   2.033       .  S
O2882      C2892   1.309       .  A
O2882     Co2885   2.131       .  S
O2883      C2890   1.251       .  A
O2883     Co2888   1.883       .  S
O2884      C2891   1.240       .  A
O2884     Co2887   1.977       .  S
Co2885     O2889   2.217       .  S
Co2886     O2889   2.085       .  S
Co2887     O2889   1.978       .  S
Co2888     O2889   1.978       .  S
C2890      C3135   1.475       .  S
C2891      C3044   1.481       .  S
C2892      C3049   1.475       .  S
C2893      C3143   1.483       .  S
O2894      C2902   1.306       .  A
O2894     Co2914   2.116       .  S
O2895      C2903   1.268       .  A
O2895     Co2915   2.029       .  S
O2896      C2904   1.237       .  A
O2896     Co2916   1.968       .  S
O2897      C2905   1.251       .  A
O2897     Co2917   1.887       .  S
O2898      C2904   1.268       .  A
O2898     Co2915   2.039       .  S
O2899      C2905   1.307       .  A
O2899     Co2914   2.129       .  S
O2900      C2903   1.240       .  A
O2900     Co2917   1.977       .  S
O2901      C2902   1.254       .  A
O2901     Co2916   1.895       .  S
C2902      C3224   1.472       .  S
C2903      C2938   1.480       .  S
C2904      C3228   1.478       .  S
C2905      C2943   1.474       .  S
O2906      C2919   1.281       .  A
O2906     Co2914   2.068       .  S
O2907      C2920   1.288       .  A
O2907     Co2915   2.049       .  S
O2908      C2921   1.259       .  A
O2908     Co2916   1.950       .  S
O2909      C2922   1.284       .  A
O2909     Co2917   2.019       .  S
O2910      C2922   1.288       .  A
O2910     Co2915   2.057       .  S
O2911      C2921   1.281       .  A
O2911     Co2914   2.076       .  S
O2912      C2919   1.261       .  A
O2912     Co2917   1.955       .  S
O2913      C2920   1.287       .  A
O2913     Co2916   2.030       .  S
Co2914     O2918   2.211       .  S
Co2915     O2918   2.085       .  S
Co2916     O2918   1.980       .  S
Co2917     O2918   1.982       .  S
C2919      C3118   1.482       .  S
C2920      C3150   1.488       .  S
C2921      C3155   1.484       .  S
C2922      C3122   1.489       .  S
C2923      C2960   1.490       .  S
C2923      N2941   1.331       .  A
N2924      N2941   1.322       .  A
N2924      N2946   1.317       .  A
N2924     Co2961   2.039       .  S
C2925      C2963   1.456       .  S
C2925      N2950   1.342       .  A
C2925      H2970   1.081       .  S
H2926      C2967   1.081       .  S
C2927      C2931   1.433       .  S
C2927      N2951   1.335       .  A
C2927      H2956   1.081       .  S
Co2928     N2946   2.164       .  S
Co2928     N2936   2.095       .  S
Co2928     N2968   2.141       .  S
Co2928     N2944   2.106       .  S
N2929      C2967   1.335       .  A
N2929     Co2930   2.084       .  S
Co2930     N2933   2.175       .  S
Co2930     N2950   2.099       .  S
Co2930     N2937   2.156       .  S
Co2930    Cl2972   2.445       .  S
C2931      N2969   1.373       .  A
N2932      N2962   1.313       .  A
N2932     Co2965   2.023       .  S
N2933      N2951   1.315       .  A
N2933      N2969   1.340       .  A
N2934      N2944   1.326       .  A
H2935      C2960   1.082       .  S
N2936      N2957   1.325       .  A
N2937      N2955   1.314       .  A
N2937      N2942   1.339       .  A
C2938      C2966   1.431       .  S
C2938      N2942   1.370       .  A
N2939      C2954   1.325       .  A
N2939     Co2961   2.030       .  S
C2940      C2943   1.479       .  S
C2940      N2968   1.352       .  A
C2940      H2974   1.081       .  S
C2943      N2964   1.333       .  A
N2945      C2971   1.330       .  A
N2945     Co2961   2.031       .  S
N2946      C2960   1.360       .  A
N2947      N2975   1.310       .  A
N2947     Co2965   2.027       .  S
H2948      C2971   1.079       .  S
H2949      C2966   1.081       .  S
N2951     Co2965   2.030       .  S
N2952      N2964   1.321       .  A
N2952      N2968   1.317       .  A
N2952     Co2961   2.032       .  S
C2953      N2957   1.348   1_554  A
C2954      H2958   1.075       .  S
N2955      C2966   1.330       .  A
N2955     Co2965   2.024       .  S
C2959      C3208   1.418       .  S
C2959      N2975   1.337       .  A
N2962      C2973   1.338       .  A
C2963      C3097   1.467       .  S
Co2965    Cl2972   2.438       .  S
C2973      C3012   1.417       .  S
C2976      C3013   1.489       .  S
C2976      N2994   1.331       .  A
N2977      N2994   1.321       .  A
N2977      N2999   1.318       .  A
N2977     Co3014   2.027       .  S
C2978      C3016   1.457       .  S
C2978      N3003   1.341       .  A
C2978      H3023   1.081       .  S
H2979      C3020   1.081       .  S
C2980      C2984   1.432       .  S
C2980      N3004   1.334       .  A
C2980      H3009   1.081       .  S
Co2981     N2999   2.170       .  S
Co2981     N2989   2.114       .  S
Co2981     N3021   2.165       .  S
Co2981     N2997   2.121       .  S
N2982      C3020   1.344       .  A
N2982     Co2983   2.112       .  S
Co2983     N2986   2.177       .  S
Co2983     N3003   2.107       .  S
Co2983     N2990   2.180       .  S
Co2983    Cl3025   2.446       .  S
C2984      N3022   1.374       .  A
N2985      N3015   1.310       .  A
N2985     Co3018   2.015       .  S
N2986      N3004   1.314       .  A
N2986      N3022   1.340       .  A
N2987      N2997   1.331       .  A
H2988      C3013   1.081       .  S
N2989      N3010   1.328       .  A
N2990      N3008   1.314       .  A
N2990      N2995   1.340       .  A
C2991      C3019   1.429       .  S
C2991      N2995   1.374       .  A
N2992      C3007   1.329       .  A
N2992     Co3014   2.026       .  S
C2993      C2996   1.490       .  S
C2993      N3021   1.360       .  A
C2993      H3027   1.082       .  S
C2996      N3017   1.328       .  A
N2998      C3024   1.325       .  A
N2998     Co3014   2.026       .  S
N2999      C3013   1.359       .  A
N3000      N3028   1.313       .  A
N3000     Co3018   2.026       .  S
H3001      C3024   1.075       .  S
H3002      C3019   1.081       .  S
N3004     Co3018   2.026       .  S
N3005      N3017   1.319       .  A
N3005      N3021   1.317       .  A
N3005     Co3014   2.026       .  S
C3006      C3020   1.460       .  S
C3007      H3011   1.079       .  S
N3008      C3019   1.332       .  A
N3008     Co3018   2.018       .  S
C3012      N3028   1.339       .  A
N3015      C3026   1.336       .  A
Co3018    Cl3025   2.441       .  S
C3026      C3188   1.412       .  S
C3029      C3066   1.478       .  S
C3029      N3047   1.336       .  A
N3030      N3047   1.323       .  A
N3030      N3052   1.317       .  A
N3030     Co3067   2.040       .  S
C3031      C3069   1.450       .  S
C3031      N3056   1.335       .  A
C3031      H3076   1.081       .  S
H3032      C3073   1.081       .  S
C3033      C3037   1.436       .  S
C3033      N3057   1.333       .  A
C3033      H3062   1.081       .  S
Co3034     N3052   2.136       .  S
Co3034     N3042   2.086       .  S
Co3034     N3074   2.130       .  S
Co3034     N3050   2.095       .  S
N3035      C3073   1.338       .  A
N3035     Co3036   2.089       .  S
Co3036     N3039   2.152       .  S
Co3036     N3056   2.085       .  S
Co3036     N3043   2.154       .  S
Co3036    Cl3078   2.440       .  S
C3037      N3075   1.369       .  A
N3038      N3068   1.310       .  A
N3038     Co3071   2.025       .  S
N3039      N3057   1.314       .  A
N3039      N3075   1.338       .  A
N3040      N3050   1.325       .  A
H3041      C3066   1.081       .  S
N3042      N3063   1.322       .  A
N3043      N3061   1.314       .  A
N3043      N3048   1.338       .  A
C3044      C3072   1.434       .  S
C3044      N3048   1.369       .  A
N3045      C3060   1.330       .  A
N3045     Co3067   2.033       .  S
C3046      C3049   1.478       .  S
C3046      N3074   1.352       .  A
C3046      H3080   1.082       .  S
C3049      N3070   1.334       .  A
N3051      C3077   1.326       .  A
N3051     Co3067   2.029       .  S
N3052      C3066   1.352       .  A
N3053      N3081   1.313       .  A
N3053     Co3071   2.035       .  S
H3054      C3077   1.078       .  S
H3055      C3072   1.081       .  S
N3057     Co3071   2.034       .  S
N3058      N3070   1.322       .  A
N3058      N3074   1.316       .  A
N3058     Co3067   2.042       .  S
C3059      C3073   1.453       .  S
C3060      H3064   1.080       .  S
N3061      C3072   1.331       .  A
N3061     Co3071   2.026       .  S
C3065      C3185   1.419       .  S
C3065      N3081   1.339       .  A
N3068      C3079   1.336       .  A
Co3071    Cl3078   2.439       .  S
C3079      C3082   1.415       .  S
C3082      C3119   1.448       .  S
N3083      N3100   1.311       .  A
N3083     Co3120   2.019       .  S
C3084      C3122   1.489       .  S
C3084      N3109   1.360       .  A
C3084      H3129   1.081       .  S
H3085      C3126   1.081       .  S
C3086      C3090   1.461   1_556  S
C3086      N3110   1.346       .  A
C3086      H3115   1.081       .  S
Co3087     N3105   2.032       .  S
Co3087     N3095   2.035       .  S
Co3087     N3127   2.033       .  S
Co3087     N3103   2.036       .  S
Co3087    Cl3131   2.462       .  S
N3088      C3126   1.359       .  A
N3088      N3095   1.317       .  A
N3088     Co3089   2.154       .  S
Co3089     N3092   2.108       .  S
Co3089     N3109   2.165       .  S
Co3089     N3096   2.104       .  S
Co3089    Cl3131   2.435       .  S
N3091      N3098   1.315       .  A
N3091      N3121   1.334       .  A
N3091     Co3124   2.148       .  S
N3092      N3128   1.327       .  A
N3093      C3122   1.332       .  A
N3093      N3103   1.321       .  A
H3094      C3119   1.080       .  S
N3095      N3116   1.319       .  A
N3096      N3101   1.325       .  A
C3097      N3101   1.349       .  A
N3098      C3113   1.335       .  A
N3098     Co3120   2.031       .  S
C3099      C3102   1.447       .  S
C3099      N3127   1.330       .  A
C3099      H3133   1.079       .  S
C3102      C3171   1.415       .  S
N3103      N3109   1.318       .  A
N3104      C3130   1.333       .  A
N3104      N3106   1.314       .  A
N3104     Co3120   2.019       .  S
N3105      C3119   1.329       .  A
N3106      N3134   1.339       .  A
N3106     Co3124   2.175       .  S
H3107      C3130   1.081       .  S
H3108      C3125   1.082       .  S
N3110     Co3124   2.113       .  S
N3111      N3123   1.311       .  A
N3111     Co3120   2.027       .  S
C3112      C3126   1.484       .  S
C3112      N3116   1.333       .  A
C3113      C3132   1.436       .  S
C3113      H3117   1.081       .  S
N3114      C3125   1.342       .  A
N3114     Co3124   2.101       .  S
C3118      C3130   1.428       .  S
C3118      N3134   1.374       .  A
N3121      C3132   1.366       .  A
C3135      C3172   1.479       .  S
C3135      N3153   1.333       .  A
N3136      N3153   1.322       .  A
N3136      N3158   1.317       .  A
N3136     Co3173   2.038       .  S
C3137      C3175   1.459       .  S
C3137      N3162   1.343       .  A
C3137      H3182   1.081       .  S
H3138      C3179   1.081       .  S
C3139      C3143   1.432       .  S
C3139      N3163   1.331       .  A
C3139      H3168   1.081       .  S
Co3140     N3158   2.139       .  S
Co3140     N3148   2.120       .  S
Co3140     N3180   2.169       .  S
Co3140     N3156   2.099       .  S
N3141      C3179   1.341       .  A
N3141     Co3142   2.103       .  S
Co3142     N3145   2.166       .  S
Co3142     N3162   2.106       .  S
Co3142     N3149   2.175       .  S
Co3142    Cl3184   2.447       .  S
C3143      N3181   1.371       .  A
N3144      N3174   1.314       .  A
N3144     Co3177   2.033       .  S
N3145      N3163   1.315       .  A
N3145      N3181   1.339       .  A
N3146      N3156   1.325       .  A
H3147      C3172   1.081       .  S
N3148      N3169   1.331       .  A
N3149      N3167   1.315       .  A
N3149      N3154   1.340       .  A
C3150      C3178   1.431       .  S
C3150      N3154   1.374       .  A
N3151      C3166   1.325       .  A
N3151     Co3173   2.020       .  S
C3152      C3155   1.490       .  S
C3152      N3180   1.360       .  A
C3152      H3186   1.082       .  S
C3155      N3176   1.329       .  A
N3157      C3183   1.330       .  A
N3157     Co3173   2.037       .  S
N3158      C3172   1.352       .  A
N3159      N3187   1.311       .  A
N3159     Co3177   2.023       .  S
H3160      C3183   1.078       .  S
H3161      C3178   1.081       .  S
N3163     Co3177   2.023       .  S
N3164      N3176   1.320       .  A
N3164      N3180   1.318       .  A
N3164     Co3173   2.025       .  S
C3165      C3179   1.457       .  S
C3166      H3170   1.078       .  S
N3167      C3178   1.334       .  A
N3167     Co3177   2.028       .  S
C3171      N3187   1.336       .  A
N3174      C3185   1.340       .  A
C3175      C3203   1.467       .  S
Co3177    Cl3184   2.437       .  S
C3188      C3225   1.445       .  S
N3189      N3206   1.310       .  A
N3189     Co3226   2.022       .  S
C3190      C3228   1.483       .  S
C3190      N3215   1.358       .  A
C3190      H3235   1.081       .  S
H3191      C3232   1.081       .  S
C3192      N3216   1.338       .  A
C3192      H3221   1.082       .  S
Co3193     N3211   2.027       .  S
Co3193     N3201   2.042       .  S
Co3193     N3233   2.036       .  S
Co3193     N3209   2.030       .  S
Co3193    Cl3237   2.470       .  S
N3194      C3232   1.359       .  A
N3194      N3201   1.316       .  A
N3194     Co3195   2.160       .  S
Co3195     N3198   2.089       .  S
Co3195     N3215   2.144       .  S
Co3195     N3202   2.101       .  S
Co3195    Cl3237   2.424       .  S
C3196      N3234   1.344       .  A
N3197      N3204   1.314       .  A
N3197      N3227   1.339       .  A
N3197     Co3230   2.172       .  S
N3198      N3234   1.322       .  A
N3199      C3228   1.332       .  A
N3199      N3209   1.318       .  A
H3200      C3225   1.078       .  S
N3201      N3222   1.323       .  A
N3202      N3207   1.325       .  A
C3203      N3207   1.347       .  A
N3204      C3219   1.336       .  A
N3204     Co3226   2.028       .  S
C3205      C3208   1.449       .  S
C3205      N3233   1.330       .  A
C3205      H3239   1.079       .  S
N3209      N3215   1.315       .  A
N3210      C3236   1.333       .  A
N3210      N3212   1.313       .  A
N3210     Co3226   2.024       .  S
N3211      C3225   1.329       .  A
N3212      N3240   1.334       .  A
N3212     Co3230   2.142       .  S
H3213      C3236   1.081       .  S
H3214      C3231   1.081       .  S
N3216     Co3230   2.092       .  S
N3217      N3229   1.311       .  A
N3217     Co3226   2.025       .  S
C3218      C3232   1.487       .  S
C3218      N3222   1.334       .  A
C3219      C3238   1.432       .  S
C3219      H3223   1.081       .  S
N3220      C3231   1.343       .  A
N3220     Co3230   2.110       .  S
C3224      C3236   1.434       .  S
C3224      N3240   1.366       .  A
N3227      C3238   1.374       .  A
