geometry optimzed in LAMMPS
_audit_creation_date              2020-11-30 
_audit_creation_method            'lammps2cif' 
_symmetry_space_group_name_H-M    'P1' 
_symmetry_Int_Tables_number       1 
_symmetry_cell_setting            triclinic 
loop_ 
_symmetry_equiv_pos_as_xyz 
  x,y,z 
_cell_length_a                    29.785728795697224 
_cell_length_b                    57.6400137586146 
_cell_length_c                    32.337540396450244 
_cell_angle_alpha                 89.82040830843633 
_cell_angle_beta                  89.69584167457704 
_cell_angle_gamma                 89.8765535282684 
loop_ 
_atom_site_label 
_atom_site_type_symbol 
_atom_site_fract_x 
_atom_site_fract_y 
_atom_site_fract_z 
_atom_site_charge 
N1          N  0.80344125  0.83885128  0.19576671    -0.07240
N2          N  0.81578597  0.82178121  0.22092887    -0.59360
N3          N  0.83507888  0.89308566  0.16894444    -0.06920
N4          N  0.86512402  0.90968627  0.17309129    -0.61490
N5          N  0.80761890  0.89255631  0.20103490    -0.06520
N6          N  0.81894034  0.90889653  0.22788225    -0.59330
N7          N  0.83123375  0.83990165  0.16411994    -0.06190
N8          N  0.86176149  0.82349507  0.16612663    -0.61840
C9          C  0.85164357  0.81212140  0.20117041     0.94940
C10         C  0.85467409  0.91954034  0.20970527     0.94720
N11         N  0.80108049  0.89530022  0.04205188    -0.07420
N12         N  0.81086590  0.91267408  0.01635181    -0.59940
N13         N  0.82741972  0.84163897  0.07004057    -0.05540
N14         N  0.85745208  0.82547043  0.06241776    -0.61190
N15         N  0.79579293  0.84162685  0.04187883    -0.07450
N16         N  0.80412098  0.82537560  0.01386059    -0.60200
N17         N  0.83127971  0.89415693  0.07152077    -0.05190
N18         N  0.86199482  0.91019636  0.06665776    -0.61280
Mn19       Mn  0.83171301  0.86743369  0.11878145     1.18440
C20         C  0.84931606  0.92164205  0.03231813     0.97020
C21         C  0.84260044  0.81540862  0.02763282     0.97680
N22         N  0.70037777  0.89419217  0.20947044    -0.07470
N23         N  0.68662763  0.90147198  0.24613631    -0.63780
N24         N  0.66382204  0.84618216  0.17172208    -0.06280
N25         N  0.62956066  0.83229124  0.17448869    -0.64460
N26         N  0.69311160  0.84185526  0.20099322    -0.06980
N27         N  0.67722660  0.82494569  0.22547995    -0.64050
N28         N  0.66891753  0.89786269  0.18139819    -0.05880
N29         N  0.63329698  0.90740526  0.19954302    -0.64740
Mn30       Mn  0.75165786  0.86654515  0.20317619     1.10660
C31         C  0.64496638  0.90987047  0.23980067     0.98240
C32         C  0.63687543  0.81928037  0.20793149     0.98320
N33         N  0.68705845  0.84436536  0.04872168    -0.06990
N34         N  0.67425269  0.82571373  0.02742666    -0.62360
N35         N  0.66532966  0.90008758  0.07608985    -0.06310
N36         N  0.62890402  0.91063004  0.06197581    -0.59090
N37         N  0.69464613  0.89781508  0.04552123    -0.07620
N38         N  0.67902266  0.90741629  0.01142111    -0.61930
N39         N  0.65858638  0.84798543  0.07921846    -0.06600
N40         N  0.62689425  0.83227647  0.07972373    -0.59110
Mn41       Mn  0.74464382  0.86956816  0.04320941     1.20190
Mn42       Mn  0.66464819  0.87407124  0.12700630     1.10090
Cl43       Cl  0.74801437  0.86988916  0.12318338    -0.87080
C44         C  0.63639688  0.81832157  0.04772870     0.95250
C45         C  0.63818636  0.91563878  0.02181170     0.95050
C46         C  0.00037498  0.75390144  0.24896316    -0.00560
C47         C  0.99430530  0.73086995  0.25809296    -0.00560
N48         N  0.18029289  0.84188620  0.06580472    -0.07240
N49         N  0.16586159  0.82420050  0.04331008    -0.59360
N50         N  0.15771702  0.89723468  0.09176986    -0.06920
N51         N  0.12762302  0.91377801  0.08743155    -0.61490
N52         N  0.18381728  0.89572044  0.05889147    -0.06520
N53         N  0.17111712  0.91143756  0.03100188    -0.59330
N54         N  0.15340158  0.84481939  0.09753873    -0.06190
N55         N  0.12113538  0.82952791  0.09806004    -0.61840
C56         C  0.12891105  0.81663134  0.06447710     0.94940
C57         C  0.13612198  0.92266083  0.04972568     0.94720
N58         N  0.19200863  0.89881165  0.21745475    -0.07420
N59         N  0.18245010  0.91679339  0.24204594    -0.59940
N60         N  0.15842625  0.84602037  0.18975869    -0.05540
N61         N  0.12971340  0.82890457  0.19163926    -0.61190
N62         N  0.18936821  0.84396865  0.21825172    -0.07450
N63         N  0.18186835  0.82483815  0.24052613    -0.60200
N64         N  0.16305988  0.89815319  0.18710534    -0.05190
N65         N  0.13383817  0.91483461  0.18994636    -0.61280
Mn66       Mn  0.15827657  0.87182942  0.14162546     1.18440
C67         C  0.14576911  0.92669425  0.22367335     0.97020
C68         C  0.14417164  0.81570352  0.22308848     0.97680
N69         N  0.29278327  0.89174091  0.05033264    -0.07470
N70         N  0.30760771  0.89934144  0.01409873    -0.63780
N71         N  0.32029672  0.84109527  0.08801974    -0.06280
N72         N  0.35093182  0.82491078  0.08302156    -0.64460
N73         N  0.28893487  0.83954221  0.05958460    -0.06980
N74         N  0.29864727  0.82225928  0.03388938    -0.64050
N75         N  0.32479760  0.89328282  0.07842892    -0.05880
N76         N  0.36152185  0.90207620  0.06111566    -0.64740
Mn77       Mn  0.23608190  0.86716467  0.05717737     1.10660
C78         C  0.35021561  0.90617524  0.02116847     0.98240
C79         C  0.33707905  0.81309721  0.04972992     0.98320
N80         N  0.29747778  0.84338800  0.21446705    -0.06990
N81         N  0.30907007  0.82689312  0.24118549    -0.62360
N82         N  0.32863738  0.89595730  0.18245216    -0.06310
N83         N  0.36676714  0.90520878  0.19508534    -0.59090
N84         N  0.29928321  0.89597905  0.21336608    -0.07620
N85         N  0.31704246  0.90547153  0.24654852    -0.61930
N86         N  0.32580188  0.84366899  0.18307347    -0.06600
N87         N  0.35641330  0.82741288  0.18721419    -0.59110
Mn88       Mn  0.24434738  0.87053305  0.21756651     1.20190
Mn89       Mn  0.32500637  0.86916894  0.13296648     1.10090
Cl90       Cl  0.24132617  0.87001275  0.13721810    -0.87080
C91         C  0.34582879  0.81706816  0.22325834     0.95250
C92         C  0.35902718  0.91126391  0.23493582     0.95050
C93         C  0.98786897  0.75422917  0.01065220    -0.00560
C94         C  0.99074519  0.73076549  0.50358348    -0.00560
N95         N  0.78439365  0.65252274  0.45411987    -0.07240
N96         N  0.81863019  0.65815397  0.47798632    -0.59360
N97         N  0.68115172  0.65995736  0.42029800    -0.06920
N98         N  0.64852075  0.67488987  0.42368916    -0.61490
N99         N  0.68178101  0.64544394  0.45161015    -0.06520
N100        N  0.64864675  0.65082552  0.47776524    -0.59330
N101        N  0.78031738  0.66749849  0.42369485    -0.06190
N102        N  0.81046924  0.68388860  0.42670629    -0.61840
C103        C  0.83458818  0.67778777  0.46012455     0.94940
C104        C  0.62772606  0.66909737  0.45882095     0.94720
N105        N  0.68459854  0.64392194  0.29760433    -0.07420
N106        N  0.65430217  0.64793266  0.26854208    -0.59940
N107        N  0.78186494  0.66732853  0.32634282    -0.05540
N108        N  0.80898044  0.68492913  0.32039659    -0.61190
N109        N  0.78623624  0.65204207  0.29667988    -0.07450
N110        N  0.81762372  0.65879934  0.27009715    -0.60200
N111        N  0.68199362  0.65982120  0.32645395    -0.05190
N112        N  0.64992273  0.67475465  0.31841208    -0.61280
Mn113      Mn  0.73175024  0.66370549  0.37440313     1.18440
C114        C  0.63303108  0.66722847  0.28246004     0.97020
C115        C  0.83138548  0.67951344  0.28535952     0.97680
N116        N  0.70107696  0.58974121  0.45296075    -0.07470
N117        N  0.66581350  0.58365846  0.47546293    -0.63780
N118        N  0.81194079  0.58361656  0.43054351    -0.06280
N119        N  0.84667010  0.57117149  0.44402000    -0.64460
N120        N  0.80142341  0.59948981  0.45838314    -0.06980
N121        N  0.82889454  0.59854010  0.49014887    -0.64050
N122        N  0.71068608  0.57351537  0.42559133    -0.05880
N123        N  0.68164154  0.55634437  0.42847420    -0.64740
Mn124      Mn  0.74133684  0.62169992  0.45580725     1.10660
C125        C  0.65445517  0.56270643  0.45997492     0.98240
C126        C  0.85692150  0.58093004  0.48116502     0.98320
N127        N  0.80247035  0.59939555  0.29808440    -0.06990
N128        N  0.82851761  0.59858554  0.26557539    -0.62360
N129        N  0.71188028  0.57284183  0.32983249    -0.06310
N130        N  0.68347647  0.55541790  0.32735609    -0.59090
N131        N  0.70253473  0.58868657  0.30165784    -0.07620
N132        N  0.66780660  0.58204735  0.27916304    -0.61930
N133        N  0.81292988  0.58311560  0.32507560    -0.06600
N134        N  0.84644440  0.57032336  0.30958117    -0.59110
Mn135      Mn  0.74326200  0.62078311  0.29766599     1.20190
Mn136      Mn  0.76378250  0.57739681  0.37781400     1.10090
Cl137      Cl  0.74541895  0.62056646  0.37660220    -0.87080
C138        C  0.85591910  0.58058741  0.27226280     0.95250
C139        C  0.65639623  0.56113950  0.29549979     0.95050
N140        N  0.19880494  0.64919074  0.29616356    -0.07240
N141        N  0.16553075  0.65500965  0.27127716    -0.59360
N142        N  0.30267887  0.65643786  0.33003561    -0.06920
N143        N  0.33248093  0.67263286  0.32486016    -0.61490
N144        N  0.30033549  0.64292368  0.29763926    -0.06520
N145        N  0.32794722  0.65086023  0.26829491    -0.59330
N146        N  0.20217001  0.66417235  0.32641838    -0.06190
N147        N  0.17191016  0.68059699  0.32296065    -0.61840
C148        C  0.14965752  0.67482820  0.28839583     0.94940
C149        C  0.34753587  0.66963385  0.28642624     0.94720
N150        N  0.29954098  0.64355136  0.45309898    -0.07420
N151        N  0.32965988  0.64996429  0.48111404    -0.59940
N152        N  0.20028749  0.66494465  0.42234333    -0.05540
N153        N  0.16976702  0.68134922  0.42496047    -0.61190
N154        N  0.19656644  0.65029842  0.45319764    -0.07450
N155        N  0.16260285  0.65631615  0.47748585    -0.60200
N156        N  0.30115535  0.65778081  0.42154894    -0.05190
N157        N  0.33225896  0.67339528  0.42620628    -0.61280
Mn158      Mn  0.25121666  0.66076292  0.37504969     1.18440
C159        C  0.35011620  0.66868304  0.46318261     0.97020
C160        C  0.14633069  0.67588136  0.45946144     0.97680
N161        N  0.28445020  0.58719415  0.30081860    -0.07470
N162        N  0.32098910  0.58145523  0.27961249    -0.63780
N163        N  0.17329106  0.58029367  0.32374512    -0.06280
N164        N  0.13812393  0.56811076  0.31040059    -0.64460
N165        N  0.18372193  0.59615342  0.29575605    -0.06980
N166        N  0.15605072  0.59555252  0.26437171    -0.64050
N167        N  0.27499810  0.57115048  0.32871384    -0.05880
N168        N  0.30487390  0.55435076  0.32687432    -0.64740
Mn169      Mn  0.24249309  0.61859601  0.29620549     1.10660
C170        C  0.33353128  0.56091438  0.29652849     0.98240
C171        C  0.12775414  0.57814816  0.27320942     0.98320
N172        N  0.18255681  0.59771454  0.45571359    -0.06990
N173        N  0.15789746  0.59658080  0.48911082    -0.62360
N174        N  0.27373539  0.57130823  0.42616391    -0.06310
N175        N  0.30020038  0.55330191  0.43248110    -0.59090
N176        N  0.28248678  0.58773857  0.45325546    -0.07620
N177        N  0.31500941  0.58101896  0.47843368    -0.61930
N178        N  0.17319847  0.58067793  0.43006061    -0.06600
N179        N  0.14233905  0.56700463  0.44773201    -0.59110
Mn180      Mn  0.24105942  0.61967157  0.45486043     1.20190
Mn181      Mn  0.22205531  0.57490226  0.37697741     1.10090
Cl182      Cl  0.23899474  0.61825562  0.37578472    -0.87080
C183        C  0.13325719  0.57748655  0.48486374     0.95250
C184        C  0.32562827  0.55934496  0.46525396     0.95050
C185        C  0.49211128  0.75460238  0.24887845    -0.00560
C186        C  0.49125894  0.73060553  0.24595949    -0.00560
C187        C  0.48993829  0.75508364  0.01816736    -0.00560
C188        C  0.48971478  0.73146138  0.51349205    -0.00560
C189        C  0.49623169  0.91452029  0.40084978    -0.00560
C190        C  0.49899488  0.91735462  0.35849399    -0.00560
C191        C  0.99435849  0.56086752  0.10450302    -0.00560
C192        C  0.99113787  0.56356907  0.14727175    -0.00560
C193        C  0.49313806  0.50994062  0.49583711    -0.00560
C194        C  0.49630869  0.48645539  0.00518087    -0.00560
C195        C  0.49506115  0.50780834  0.26184226    -0.00560
C196        C  0.49238945  0.48413743  0.25834288    -0.00560
N197        N  0.30069961  0.40006297  0.05128265    -0.07240
N198        N  0.31171227  0.41728379  0.02578759    -0.59360
N199        N  0.33185390  0.34749753  0.07815541    -0.06920
N200        N  0.36382404  0.33212954  0.07289948    -0.61490
N201        N  0.30217693  0.34627402  0.04840318    -0.06520
N202        N  0.31397796  0.32985172  0.02161222    -0.59330
N203        N  0.32817141  0.39993024  0.08296150    -0.06190
N204        N  0.35766280  0.41670093  0.08034151    -0.61840
C205        C  0.34711982  0.42754584  0.04498111     0.94940
C206        C  0.35273360  0.32122165  0.03773747     0.94720
N207        N  0.30230527  0.34150543  0.20209902    -0.07420
N208        N  0.31491583  0.32319687  0.22463596    -0.59940
N209        N  0.32979225  0.39728513  0.17838339    -0.05540
N210        N  0.35895960  0.41407525  0.18403185    -0.61190
N211        N  0.30187235  0.39564141  0.20980928    -0.07450
N212        N  0.31183868  0.41157087  0.23796989    -0.60200
N213        N  0.33088851  0.34460193  0.17163641    -0.05190
N214        N  0.36226748  0.32882896  0.17199286    -0.61280
Mn215      Mn  0.33008938  0.37258030  0.12787002     1.18440
C216        C  0.35266147  0.31538304  0.20474254     0.97020
C217        C  0.34743714  0.42302177  0.22099862     0.97680
N218        N  0.19210924  0.34579131  0.04975247    -0.07470
N219        N  0.18110056  0.32817802  0.02505939    -0.63780
N220        N  0.16239540  0.39971586  0.07762324    -0.06280
N221        N  0.12532366  0.40873493  0.06165307    -0.64460
N222        N  0.19377474  0.39882982  0.04854978    -0.06980
N223        N  0.17867872  0.40779587  0.01367493    -0.64050
N224        N  0.16152112  0.34801970  0.07908385    -0.05880
N225        N  0.12980216  0.33253968  0.07498436    -0.64740
Mn226      Mn  0.24745145  0.37249117  0.04812044     1.10660
C227        C  0.14208426  0.31992011  0.04196181     0.98240
C228        C  0.13616518  0.41425147  0.02202809     0.98320
N229        N  0.19559210  0.39525281  0.21105967    -0.06990
N230        N  0.18225481  0.40406142  0.24660731    -0.62360
N231        N  0.16117204  0.34581118  0.17535269    -0.06310
N232        N  0.12768377  0.33125452  0.18064710    -0.59090
N233        N  0.19216743  0.34260003  0.20378904    -0.07620
N234        N  0.17975041  0.32553495  0.22917899    -0.61930
N235        N  0.16395667  0.39770504  0.18275909    -0.06600
N236        N  0.12825169  0.40767513  0.19984558    -0.59110
Mn237      Mn  0.24822711  0.36836983  0.20800195     1.20190
Mn238      Mn  0.16212724  0.37359851  0.12876089     1.10090
Cl239      Cl  0.24630281  0.37191784  0.12817887    -0.87080
C240        C  0.14032063  0.41175199  0.23957646     0.95250
C241        C  0.13944060  0.31862064  0.21389226     0.95050
N242        N  0.68297175  0.39275420  0.20911956    -0.07240
N243        N  0.67026176  0.41015400  0.23363892    -0.59360
N244        N  0.65931002  0.33873357  0.17760980    -0.06920
N245        N  0.62994245  0.32195704  0.18250496    -0.61490
N246        N  0.68833631  0.33889665  0.20809341    -0.06520
N247        N  0.67880159  0.32211728  0.23488418    -0.59330
N248        N  0.65474780  0.39107885  0.17820617    -0.06190
N249        N  0.62313856  0.40668605  0.18064492    -0.61840
C250        C  0.63258289  0.41867300  0.21489020     0.94940
C251        C  0.64253504  0.31163709  0.21795895     0.94720
N252        N  0.68762224  0.34019078  0.05187261    -0.07420
N253        N  0.67662449  0.32426337  0.02416286    -0.59940
N254        N  0.65475267  0.39289105  0.08303773    -0.05540
N255        N  0.62516657  0.40984624  0.08074741    -0.61190
N256        N  0.68394464  0.39416056  0.05242663    -0.07450
N257        N  0.67411227  0.41219009  0.02823507    -0.60200
N258        N  0.65878649  0.33984677  0.08266817    -0.05190
N259        N  0.62826705  0.32380897  0.07741171    -0.61280
Mn260      Mn  0.65663429  0.36557757  0.13041111     1.18440
C261        C  0.63966326  0.31415468  0.04115820     0.97020
C262        C  0.63740701  0.42191741  0.04675726     0.97680
N263        N  0.79663195  0.34135698  0.20743355    -0.07470
N264        N  0.80903024  0.32279481  0.22948715    -0.63780
N265        N  0.82161072  0.39671129  0.18248477    -0.06280
N266        N  0.85855369  0.40612298  0.19755284    -0.64460
N267        N  0.79163294  0.39427845  0.21256876    -0.06980
N268        N  0.80804792  0.40219900  0.24775891    -0.64050
N269        N  0.82600586  0.34500282  0.17768694    -0.05880
N270        N  0.85807668  0.32960269  0.17854816    -0.64740
Mn271      Mn  0.73955663  0.36681856  0.21093221     1.10660
C272        C  0.84779368  0.31567383  0.21040964     0.98240
C273        C  0.84971139  0.40969374  0.23815393     0.98320
N274        N  0.79197517  0.39456299  0.04912884    -0.06990
N275        N  0.80830416  0.40218682  0.01360295    -0.62360
N276        N  0.82555898  0.34431228  0.08366634    -0.06310
N277        N  0.85731453  0.32852749  0.08083551    -0.59090
N278        N  0.79620272  0.34208490  0.05362774    -0.07620
N279        N  0.80853596  0.32477416  0.02893143    -0.61930
N280        N  0.82238085  0.39655516  0.07857312    -0.06600
N281        N  0.85967144  0.40542530  0.06268774    -0.59110
Mn282      Mn  0.73967254  0.36772556  0.05046962     1.20190
Mn283      Mn  0.82347040  0.37146462  0.13061774     1.10090
Cl284      Cl  0.74000207  0.36819743  0.13062734    -0.87080
C285        C  0.85032905  0.40912842  0.02229222     0.95250
C286        C  0.84643291  0.31632933  0.04705334     0.95050
C287        C  0.49278997  0.22761534  0.25537161    -0.00560
C288        C  0.49649124  0.25069635  0.24487000    -0.00560
C289        C  0.49186464  0.25520027  0.00208092    -0.00560
C290        C  0.49309826  0.23182880  0.49246994    -0.00560
N291        N  0.70487683  0.15310194  0.30350185    -0.07240
N292        N  0.67003460  0.15917768  0.28073125    -0.59360
N293        N  0.80922864  0.15852821  0.33380748    -0.06920
N294        N  0.84276121  0.17272817  0.32834260    -0.61490
N295        N  0.80659627  0.14352541  0.30357588    -0.06520
N296        N  0.83870733  0.14763555  0.27584302    -0.59330
N297        N  0.71000515  0.16787345  0.33379206    -0.06190
N298        N  0.67965253  0.18432337  0.33235578    -0.61840
C299        C  0.65513393  0.17894580  0.29902024     0.94940
C300        C  0.86133933  0.16572551  0.29273950     0.94720
N301        N  0.80531783  0.14525986  0.45911304    -0.07420
N302        N  0.83165314  0.15304132  0.48922153    -0.59940
N303        N  0.70987567  0.16844397  0.42911446    -0.05540
N304        N  0.68211765  0.18603521  0.43247501    -0.61190
N305        N  0.70389325  0.15365860  0.45951735    -0.07450
N306        N  0.67126920  0.16088285  0.48432935    -0.60200
N307        N  0.81005252  0.15860168  0.42646427    -0.05190
N308        N  0.84007168  0.17466212  0.43247005    -0.61280
Mn309      Mn  0.75964386  0.16331802  0.38073716     1.18440
C310        C  0.85301954  0.17153591  0.47153091     0.97020
C311        C  0.65853282  0.18138483  0.46714987     0.97680
N312        N  0.78437216  0.08848838  0.30482819    -0.07470
N313        N  0.81709102  0.08074496  0.28067764    -0.63780
N314        N  0.67380237  0.08477858  0.32784908    -0.06280
N315        N  0.63999870  0.07267462  0.31149361    -0.64460
N316        N  0.68595652  0.10095486  0.30118261    -0.06980
N317        N  0.66103585  0.10062608  0.26810396    -0.64050
N318        N  0.77358961  0.07264914  0.33257334    -0.05880
N319        N  0.79893602  0.05408063  0.32805835    -0.64740
Mn320      Mn  0.74626525  0.12139340  0.30215327     1.10660
C321        C  0.82567515  0.05909906  0.29543778     0.98240
C322        C  0.63207679  0.08334180  0.27416477     0.98320
N323        N  0.68479170  0.10069913  0.46148200    -0.06990
N324        N  0.65712714  0.10029468  0.49320204    -0.62360
N325        N  0.77549496  0.07374186  0.42854342    -0.06310
N326        N  0.80580572  0.05702330  0.42954038    -0.59090
N327        N  0.78504270  0.08972141  0.45632685    -0.07620
N328        N  0.82157575  0.08388727  0.47702268    -0.61930
N329        N  0.67404772  0.08477390  0.43400157    -0.06600
N330        N  0.63889515  0.07272268  0.44796034    -0.59110
Mn331      Mn  0.74522179  0.12201740  0.46051777     1.20190
Mn332      Mn  0.72228413  0.07809183  0.38105907     1.10090
Cl333      Cl  0.74313949  0.12100876  0.38115343    -0.87080
C334        C  0.62871753  0.08291352  0.48492983     0.95250
C335        C  0.83424433  0.06349754  0.45979785     0.95050
N336        N  0.28777564  0.15001002  0.45517404    -0.07240
N337        N  0.32189995  0.15536269  0.47922148    -0.59360
N338        N  0.18435970  0.15850014  0.42420180    -0.06920
N339        N  0.15227636  0.17380936  0.42837334    -0.61490
N340        N  0.18510386  0.14389185  0.45528806    -0.06520
N341        N  0.15328208  0.14955310  0.48250827    -0.59330
N342        N  0.28518300  0.16456704  0.42398901    -0.06190
N343        N  0.31683618  0.18034387  0.42605494    -0.61840
C344        C  0.33920315  0.17438917  0.46058003     0.94940
C345        C  0.13298434  0.16822183  0.46447523     0.94720
N346        N  0.18499098  0.14144917  0.30140584    -0.07420
N347        N  0.15501544  0.14764969  0.27308805    -0.59940
N348        N  0.28264236  0.16375925  0.32724264    -0.05540
N349        N  0.31068886  0.18096776  0.32151543    -0.61190
N350        N  0.28649870  0.14834515  0.29764604    -0.07450
N351        N  0.31840246  0.15458449  0.27124152    -0.60200
N352        N  0.18331372  0.15603629  0.33237359    -0.05190
N353        N  0.15213684  0.17155983  0.32711617    -0.61280
Mn354      Mn  0.23435522  0.16075775  0.37696706     1.18440
C355        C  0.13462971  0.16653479  0.29028204     0.97020
C356        C  0.33258361  0.17516309  0.28655371     0.97680
N357        N  0.20205055  0.08806331  0.45568006    -0.07470
N358        N  0.16680228  0.08215585  0.47828004    -0.63780
N359        N  0.31269845  0.08096996  0.43347699    -0.06280
N360        N  0.34589747  0.06830294  0.44975798    -0.64460
N361        N  0.30202068  0.09764146  0.45957418    -0.06980
N362        N  0.32766350  0.09716899  0.49223258    -0.64050
N363        N  0.21185838  0.07143942  0.42927013    -0.05880
N364        N  0.18336613  0.05414806  0.43314626    -0.64740
Mn365      Mn  0.24332359  0.11974268  0.45763795     1.10660
C366        C  0.15555191  0.06087673  0.46392646     0.98240
C367        C  0.35503866  0.07899746  0.48659774     0.98320
N368        N  0.30211750  0.09492152  0.29894230    -0.06990
N369        N  0.33010261  0.09362414  0.26750649    -0.62360
N370        N  0.20980250  0.07046581  0.33453441    -0.06310
N371        N  0.17819463  0.05443431  0.33508834    -0.59090
N372        N  0.20124369  0.08607509  0.30568383    -0.07620
N373        N  0.16421412  0.08061807  0.28553536    -0.61930
N374        N  0.31227660  0.07959220  0.32786781    -0.06600
N375        N  0.34763171  0.06717299  0.31556589    -0.59110
Mn376      Mn  0.24324898  0.11740779  0.29941901     1.20190
Mn377      Mn  0.26366703  0.07468298  0.38110746     1.10090
Cl378      Cl  0.24654831  0.11800153  0.37876287    -0.87080
C379        C  0.35815129  0.07634872  0.27780465     0.95250
C380        C  0.15023420  0.06089414  0.30439044     0.95050
C381        C  0.99524366  0.25274071  0.23411263    -0.00560
C382        C  0.99659887  0.22934941  0.24129928    -0.00560
C383        C  0.99775854  0.25740973  0.00591516    -0.00560
C384        C  0.99520065  0.23354382  0.50649603    -0.00560
C385        C  0.99513807  0.41330256  0.40053826    -0.00560
C386        C  0.99458813  0.41653190  0.35816561    -0.00560
C387        C  0.49247621  0.06574676  0.11070852    -0.00560
C388        C  0.49653058  0.06282015  0.15324739    -0.00560
C389        C  0.99129517  0.98619866  0.00884562    -0.00560
C390        C  0.99267794  0.00978646  0.00198905    -0.00560
C391        C  0.99082406  0.00781452  0.26415180    -0.00560
C392        C  0.99311123  0.98414732  0.25779906    -0.00560
C393        C  0.10457510  0.03890374  0.25431411    -0.10280
C394        C  0.10892922  0.04822643  0.29384503     0.05920
C395        C  0.07386743  0.04520250  0.32267198    -0.04040
C396        C  0.03655173  0.03160756  0.31260618    -0.08490
C397        C  0.03250948  0.02153222  0.27328095     0.05040
C398        C  0.06661960  0.02605126  0.24360715    -0.03520
Br399      Br  0.06144595  0.01840185  0.18662192    -0.03210
H400        H  0.13060149  0.04194983  0.23139446     0.08950
H401        H  0.01000817  0.02933248  0.33529709     0.06970
Br402      Br  0.07308338  0.06159685  0.37402995    -0.03640
C403        C  0.10385531  0.02784305  0.45248034    -0.10280
C404        C  0.11533467  0.04738801  0.47621727     0.05920
C405        C  0.08644755  0.05414411  0.50866636    -0.04040
C406        C  0.04727583  0.04162189  0.51619199    -0.08490
C407        C  0.03570360  0.02211273  0.49269055     0.05040
C408        C  0.06383813  0.01580789  0.45935713    -0.03520
Br409      Br  0.04703536  0.99327438  0.41864867    -0.03210
H410        H  0.12475248  0.02263053  0.42660705     0.08950
H411        H  0.02639317  0.04712498  0.04139192     0.06970
Br412      Br  0.09759513  0.07991519  0.54472359    -0.03640
C413        C  0.38598472  0.08595550  0.05658975    -0.10280
C414        C  0.38660975  0.07209445  0.52060690     0.05920
C415        C  0.41671816  0.05326273  0.51957404    -0.04040
C416        C  0.44693312  0.04987045  0.05248268    -0.08490
C417        C  0.44913817  0.06522457  0.08662980     0.05040
C418        C  0.41641391  0.08296194  0.08888262    -0.03520
Br419      Br  0.41193407  0.10560664  0.13208004    -0.03210
H420        H  0.36247789  0.10022096  0.05937862     0.08950
H421        H  0.47098982  0.03584440  0.05001907     0.06970
Br422      Br  0.42014802  0.03240535  0.47364642    -0.03640
C423        C  0.39264013  0.05156163  0.22240178    -0.10280
C424        C  0.39618867  0.07014357  0.25042965     0.05920
C425        C  0.43061960  0.08640478  0.24453472    -0.04040
C426        C  0.46095405  0.08386025  0.21196396    -0.08490
C427        C  0.45815788  0.06534237  0.18357627     0.05040
C428        C  0.42338849  0.04898696  0.18924886    -0.03520
Br429      Br  0.41679168  0.02286509  0.15335220    -0.03210
H430        H  0.36504313  0.03946748  0.22548516     0.08950
H431        H  0.48667410  0.09694505  0.20835169     0.06970
Br432      Br  0.43651931  0.11325542  0.27918563    -0.03640
C433        C  0.04397473  0.19507940  0.22548883    -0.10280
C434        C  0.03845549  0.21599622  0.24764689     0.05920
C435        C  0.06682831  0.22072893  0.28098643    -0.04040
C436        C  0.10005445  0.20501787  0.29102341    -0.08490
C437        C  0.10393567  0.18339243  0.27095494     0.05040
C438        C  0.07631924  0.17869411  0.23698717    -0.03520
Br439      Br  0.07825705  0.14987224  0.20764912    -0.03210
H440        H  0.02133881  0.19102035  0.20042669     0.08950
H441        H  0.12100778  0.20935074  0.31712902     0.06970
Br442      Br  0.05736836  0.24566803  0.31933649    -0.03640
C443        C  0.06720390  0.21298351  0.52509470    -0.10280
C444        C  0.03452966  0.21886954  0.49556451     0.05920
C445        C  0.03434209  0.20723576  0.45745415    -0.04040
C446        C  0.06395938  0.18906933  0.45038334    -0.08490
C447        C  0.09577897  0.18253360  0.48003038     0.05040
C448        C  0.09777603  0.19482457  0.51756955    -0.03520
Br449      Br  0.14255487  0.18817948  0.55825558    -0.03210
H450        H  0.06771210  0.22182176  0.55458102     0.08950
H451        H  0.06359736  0.18066980  0.42042911     0.06970
Br452      Br  0.99581965  0.21637056  0.41289105    -0.03640
C453        C  0.88951399  0.04979448  0.51207209    -0.10280
C454        C  0.87522802  0.05040134  0.47097955     0.05920
C455        C  0.90121743  0.03894070  0.44088931    -0.04040
C456        C  0.93712383  0.02483214  0.45245871    -0.08490
C457        C  0.95090146  0.02346332  0.49370089     0.05040
C458        C  0.92801289  0.03734798  0.02348989    -0.03520
Br459      Br  0.94808040  0.04281262  0.07885562    -0.03210
H460        H  0.87135597  0.05963713  0.03527292     0.08950
H461        H  0.95619506  0.01598153  0.42864173     0.06970
Br462      Br  0.89551705  0.04584508  0.38362951    -0.03640
C463        C  0.89801767  0.05415643  0.25782606    -0.10280
C464        C  0.86404216  0.04429551  0.28220212     0.05920
C465        C  0.87026931  0.02145076  0.29725466    -0.04040
C466        C  0.91198546  0.01056959  0.29278255    -0.08490
C467        C  0.94656390  0.02042278  0.26871693     0.05040
C468        C  0.93838578  0.04241683  0.25029252    -0.03520
Br469      Br  0.97955997  0.05804615  0.21412947    -0.03210
H470        H  0.89367069  0.07142514  0.24514372     0.08950
H471        H  0.91720675  0.99421954  0.30853043     0.06970
Br472      Br  0.82419964  0.00396902  0.32512443    -0.03640
C473        C  0.56452988  0.08467457  0.17376316    -0.10280
C474        C  0.54106176  0.06375700  0.17513627     0.05920
C475        C  0.55095495  0.04812555  0.20784952    -0.04040
C476        C  0.58038407  0.05447746  0.23989533    -0.08490
C477        C  0.60083167  0.07638794  0.24017181     0.05040
C478        C  0.59317162  0.09132276  0.20557615    -0.03520
Br479      Br  0.61585458  0.12245657  0.19972497    -0.03210
H480        H  0.55657109  0.09732036  0.15033228     0.08950
H481        H  0.58668773  0.04238033  0.26488632     0.06970
Br482      Br  0.52350078  0.01815836  0.21095350    -0.03640
C483        C  0.55634312  0.05129959  0.06553652    -0.10280
C484        C  0.53231705  0.07007657  0.08279209     0.05920
C485        C  0.53950892  0.09240155  0.06571199    -0.04040
C486        C  0.56922452  0.09553829  0.03269090    -0.08490
C487        C  0.59243212  0.07689865  0.51484700     0.05040
C488        C  0.58608391  0.05455535  0.03179315    -0.03520
Br489      Br  0.61842754  0.02830447  0.51101652    -0.03210
H490        H  0.55076543  0.03395394  0.07741034     0.08950
H491        H  0.57461244  0.11295777  0.52096350     0.05930
Br492      Br  0.51060897  0.11986980  0.08585327    -0.03640
C493        C  0.91262898  0.18358425  0.52129823    -0.10280
C494        C  0.88055696  0.18947586  0.49171298     0.05920
C495        C  0.88015478  0.21240009  0.47572122    -0.04040
C496        C  0.91645858  0.22694406  0.48233599    -0.08490
C497        C  0.95164668  0.22031495  0.50838846     0.05040
C498        C  0.94718775  0.19917172  0.53085825    -0.03520
Br499      Br  0.98641036  0.19050841  0.07506587    -0.03210
H500        H  0.91211634  0.16655936  0.03549570     0.08950
H501        H  0.91811035  0.24295345  0.46489362     0.06970
Br502      Br  0.83174403  0.22518793  0.44353003    -0.03640
C503        C  0.89711145  0.18811337  0.23531189    -0.10280
C504        C  0.89891235  0.17881066  0.27538876     0.05920
C505        C  0.93071493  0.18724995  0.30342262    -0.04040
C506        C  0.95697366  0.20612243  0.29289012    -0.08490
C507        C  0.95654769  0.21535656  0.25271957     0.05040
C508        C  0.92686725  0.20583681  0.22337034    -0.03520
Br509      Br  0.92682366  0.21547887  0.16677890    -0.03210
H510        H  0.87222191  0.18193595  0.21370017     0.08950
H511        H  0.98074074  0.21240462  0.31539631     0.06970
Br512      Br  0.94083838  0.17273845  0.35626116    -0.03640
C513        C  0.58533082  0.18581202  0.50407254    -0.10280
C514        C  0.61978203  0.19560533  0.48008349     0.05920
C515        C  0.61416802  0.21821882  0.46422560    -0.04040
C516        C  0.57239411  0.22886863  0.46630464    -0.08490
C517        C  0.53740063  0.21932989  0.49009915     0.05040
C518        C  0.54487103  0.19775942  0.51031141    -0.03520
Br519      Br  0.50209404  0.18401375  0.54771886    -0.03210
H520        H  0.58953692  0.16871984  0.51752898     0.08950
H521        H  0.56766276  0.24498263  0.44969324     0.06970
Br522      Br  0.66296954  0.23661564  0.44316261    -0.03640
C523        C  0.41229613  0.21956726  0.50714991    -0.10280
C524        C  0.45195677  0.21746238  0.48332430     0.05920
C525        C  0.45381581  0.19903832  0.45419298    -0.04040
C526        C  0.41893821  0.18300713  0.45249267    -0.08490
C527        C  0.37896625  0.18674205  0.47387718     0.05040
C528        C  0.37539306  0.20529643  0.50111089    -0.03520
Br529      Br  0.32049911  0.21195179  0.53017596    -0.03210
H530        H  0.40874135  0.23192531  0.53129359     0.08950
H531        H  0.42216443  0.16799146  0.43295855     0.06970
Br532      Br  0.50040133  0.19518288  0.41321254    -0.03640
C533        C  0.56170574  0.22324187  0.29793636    -0.10280
C534        C  0.53297711  0.21395040  0.26820422     0.05920
C535        C  0.54322618  0.19202681  0.25091347    -0.04040
C536        C  0.58317150  0.18092323  0.26145648    -0.08490
C537        C  0.61387997  0.19146212  0.28803785     0.05040
C538        C  0.60314818  0.21320164  0.30563030    -0.03520
Br539      Br  0.64444885  0.23198446  0.33608011    -0.03210
H540        H  0.55317115  0.23932446  0.31332203     0.08950
H541        H  0.59052333  0.16414531  0.24818947     0.06970
Br542      Br  0.50665697  0.17691075  0.21043113    -0.03640
C543        C  0.44333177  0.20370569  0.29914883    -0.10280
C544        C  0.44913513  0.21541662  0.26144000     0.05920
C545        C  0.41726701  0.21182256  0.22978943    -0.04040
C546        C  0.37913121  0.19824470  0.23736538    -0.08490
C547        C  0.37421186  0.18680464  0.27515729     0.05040
C548        C  0.40765164  0.18868624  0.30507036    -0.03520
Br549      Br  0.40831225  0.16858774  0.35191986    -0.03210
H550        H  0.46821664  0.20513677  0.32329189     0.08950
H551        H  0.35389978  0.19626398  0.21363661     0.06970
Br552      Br  0.42671668  0.22167866  0.17451501    -0.03640
C553        C  0.95467943  0.42769398  0.46309948    -0.10280
C554        C  0.95418764  0.41292286  0.42825114     0.05920
C555        C  0.91848817  0.39682704  0.42520070    -0.04040
C556        C  0.88372815  0.39706287  0.45476956    -0.08490
C557        C  0.88537828  0.41152858  0.98978214     0.05040
C558        C  0.92229141  0.42631904  0.99437324    -0.03520
Br559      Br  0.93152396  0.44438124  0.04333895    -0.03210
H560        H  0.98156501  0.44001522  0.46714655     0.08950
H561        H  0.85671361  0.38462258  0.45186980     0.06970
Br562      Br  0.91742658  0.37186479  0.38609389    -0.03640
C563        C  0.95515799  0.39742474  0.30010794    -0.10280
C564        C  0.95336037  0.41423470  0.33159432     0.05920
C565        C  0.91590465  0.42940706  0.33263053    -0.04040
C566        C  0.88224138  0.42770308  0.30220097    -0.08490
C567        C  0.88557333  0.41148809  0.26987835     0.05040
C568        C  0.92210110  0.39586604  0.26982790    -0.03520
Br569      Br  0.92806515  0.37102061  0.23063474    -0.03210
H570        H  0.98301086  0.38530907  0.29891140     0.08950
H571        H  0.85395260  0.43952911  0.30313083     0.06970
Br572      Br  0.91055804  0.45400170  0.37209772    -0.03640
C573        C  0.90495432  0.30406329  0.99711296    -0.10280
C574        C  0.87726341  0.29846845  0.03067844     0.05920
C575        C  0.88792245  0.27893103  0.05483821    -0.04040
C576        C  0.92751467  0.26643336  0.04725903    -0.08490
C577        C  0.95632655  0.27211239  0.01397898     0.05040
C578        C  0.94359982  0.29097987  0.98819333    -0.03520
Br579      Br  0.97563227  0.29995623  0.93952530    -0.03210
H580        H  0.89745408  0.31929164  0.97864116     0.08950
H581        H  0.93543331  0.25191624  0.06723692     0.06970
Br582      Br  0.84808639  0.26829169  0.09760787    -0.03640
C583        C  0.90440380  0.28849247  0.18502286    -0.10280
C584        C  0.87717163  0.29522396  0.21860502     0.05920
C585        C  0.88554405  0.28510924  0.25763309    -0.04040
C586        C  0.92227345  0.26968896  0.26232120    -0.08490
C587        C  0.95117131  0.26474727  0.22864959     0.05040
C588        C  0.94128017  0.27419332  0.18993264    -0.03520
Br589      Br  0.97964945  0.27012575  0.14300293    -0.03210
H590        H  0.89939192  0.29590565  0.15462115     0.08950
H591        H  0.93004208  0.26281794  0.29265807     0.06970
Br592      Br  0.85133904  0.29348860  0.30561653    -0.03640
C593        C  0.61476103  0.27172056  0.21623627    -0.10280
C594        C  0.61540395  0.29309327  0.23656407     0.05920
C595        C  0.58054549  0.29862084  0.26430062    -0.04040
C596        C  0.54402285  0.28359173  0.26889458    -0.08490
C597        C  0.54097894  0.26312572  0.24546592     0.05040
C598        C  0.57810522  0.25674892  0.22022333    -0.03520
Br599      Br  0.57784364  0.23064601  0.18379940    -0.03210
H600        H  0.64078687  0.26773120  0.19378590     0.08950
H601        H  0.51631843  0.28869664  0.28874083     0.06970
Br602      Br  0.57826714  0.32800435  0.29189070    -0.03640
C603        C  0.54430717  0.28754727  0.98353904    -0.10280
C604        C  0.53399643  0.26878190  0.00993728     0.05920
C605        C  0.56454257  0.26328578  0.04201141    -0.04040
C606        C  0.60244089  0.27692897  0.04803728    -0.08490
C607        C  0.61119665  0.29622109  0.02309058     0.05040
C608        C  0.58251461  0.30120916  0.98988324    -0.03520
Br609      Br  0.59177468  0.32776304  0.95508570    -0.03210
H610        H  0.52233679  0.29180239  0.45808307     0.08950
H611        H  0.62384502  0.27335313  0.07434001     0.06970
Br612      Br  0.55729411  0.23830184  0.08036783    -0.03640
C613        C  0.07724133  0.43348899  0.27280569    -0.10280
C614        C  0.10735674  0.41482789  0.27366414     0.05920
C615        C  0.10382288  0.39838794  0.30617128    -0.04040
C616        C  0.06858702  0.39990955  0.33483999    -0.08490
C617        C  0.03749161  0.41822491  0.33347029     0.05040
C618        C  0.04330114  0.43559025  0.30283306    -0.03520
Br619      Br  0.00577335  0.46259587  0.30031277    -0.03210
H620        H  0.08003864  0.44645602  0.24862079     0.08950
H621        H  0.06421232  0.38598977  0.35695626     0.06970
Br622      Br  0.14369378  0.37227805  0.31173146    -0.03640
C623        C  0.08269129  0.39347408  0.47745241    -0.10280
C624        C  0.10248506  0.41459792  0.98854946     0.05920
C625        C  0.09246781  0.43461312  0.96531536    -0.04040
C626        C  0.06083343  0.43354071  0.43319527    -0.08490
C627        C  0.03839264  0.41268223  0.42422858     0.05040
C628        C  0.05102530  0.39237871  0.44575928    -0.03520
Br629      Br  0.02581532  0.36264512  0.43336149    -0.03210
H630        H  0.09164661  0.37772028  0.49388362     0.08950
H631        H  0.05121934  0.44934312  0.41732478     0.06970
Br632      Br  0.11884365  0.46391757  0.97844181    -0.03640
C633        C  0.11430259  0.27774702  0.21365178    -0.10280
C634        C  0.10971978  0.30009293  0.23014180     0.05920
C635        C  0.06890635  0.30600391  0.24951487    -0.04040
C636        C  0.03394921  0.28988794  0.25199814    -0.08490
C637        C  0.03661045  0.26811988  0.23229111     0.05040
C638        C  0.07742552  0.26256171  0.21148952    -0.03520
Br639      Br  0.08284811  0.23808177  0.17140638    -0.03210
H640        H  0.14474007  0.27341229  0.19684709     0.08950
H641        H  0.00349312  0.29496783  0.26801234     0.06970
Br642      Br  0.05726437  0.33668688  0.26957636    -0.03640
C643        C  0.05566550  0.27281104  0.05200209    -0.10280
C644        C  0.04244680  0.26912483  0.01142146     0.05920
C645        C  0.07099519  0.27751064  0.97939078    -0.04040
C646        C  0.10593665  0.29331097  0.98864581    -0.08490
C647        C  0.11498557  0.29924736  0.02987482     0.05040
C648        C  0.09176538  0.28706743  0.06120915    -0.03520
Br649      Br  0.10800608  0.28904179  0.11771228    -0.03210
H650        H  0.03743899  0.26452547  0.07684594     0.08950
H651        H  0.12498391  0.30127626  0.96380465     0.06970
Br652      Br  0.06663191  0.26671313  0.42384813    -0.03640
C653        C  0.39608413  0.28682575  0.05461282    -0.10280
C654        C  0.37952485  0.30117922  0.02333894     0.05920
C655        C  0.39648847  0.29852155  0.98278434    -0.04040
C656        C  0.43094670  0.28216080  0.97494550    -0.08490
C657        C  0.44938118  0.26888528  0.00742277     0.05040
C658        C  0.43110948  0.27155783  0.04723208    -0.03520
Br659      Br  0.45021007  0.25333624  0.09259535    -0.03210
H660        H  0.38326968  0.28839445  0.08594345     0.08950
H661        H  0.44492596  0.28073398  0.94409387     0.06970
Br662      Br  0.37757455  0.31849218  0.93876263    -0.03640
C663        C  0.41920195  0.26747321  0.26128962    -0.10280
C664        C  0.45667088  0.26557696  0.23439812     0.05920
C665        C  0.45767020  0.27967753  0.19868026    -0.04040
C666        C  0.42142774  0.29366995  0.18926280    -0.08490
C667        C  0.38466778  0.29649324  0.21631052     0.05040
C668        C  0.38359503  0.28301956  0.25282211    -0.03520
Br669      Br  0.33607224  0.28568931  0.29266245    -0.03210
H670        H  0.41849367  0.25761898  0.28982469     0.08950
H671        H  0.42386540  0.30351735  0.16078924     0.06970
Br672      Br  0.50824348  0.28300837  0.16181066    -0.03640
C673        C  0.41538827  0.47766497  0.22760946    -0.10280
C674        C  0.44784632  0.47147873  0.25719003     0.05920
C675        C  0.43987197  0.45131343  0.28127614    -0.04040
C676        C  0.40337730  0.43670709  0.27241901    -0.08490
C677        C  0.37398511  0.44188060  0.23993675     0.05040
C678        C  0.37911853  0.46309673  0.21881433    -0.03520
Br679      Br  0.33926444  0.47197692  0.17510195    -0.03210
H680        H  0.42023142  0.49279769  0.20841655     0.08950
H681        H  0.39992779  0.42044616  0.28899908     0.06970
Br682      Br  0.47811517  0.44244922  0.32607378    -0.03640
C683        C  0.56943398  0.44446054  0.19861748    -0.10280
C684        C  0.60219483  0.43789501  0.22763799     0.05920
C685        C  0.60134631  0.44856878  0.26668563    -0.04040
C686        C  0.56653474  0.46425122  0.27630097    -0.08490
C687        C  0.53308905  0.47011321  0.24721183     0.05040
C688        C  0.53640536  0.46061632  0.20750031    -0.03520
Br689      Br  0.49695910  0.46864553  0.16322922    -0.03210
H690        H  0.56848678  0.43664972  0.16828314     0.08950
H691        H  0.56479110  0.47073301  0.30724412     0.06970
Br692      Br  0.64441509  0.44152308  0.30871335    -0.03640
C693        C  0.44228401  0.45480439  0.98663710    -0.10280
C694        C  0.45514002  0.47239214  0.01425828     0.05920
C695        C  0.42731490  0.47698255  0.04872133    -0.04040
C696        C  0.38890259  0.46360585  0.05562118    -0.08490
C697        C  0.37695142  0.44566866  0.02858423     0.05040
C698        C  0.40344724  0.44167258  0.99328263    -0.03520
Br699      Br  0.39049905  0.41710242  0.95533374    -0.03210
H700        H  0.46199802  0.45128856  0.95942319     0.08950
H701        H  0.36940369  0.46643547  0.08351727     0.06970
Br702      Br  0.44059628  0.50072621  0.08810751    -0.03640
C703        C  0.55769174  0.47268145  0.05186904    -0.10280
C704        C  0.54006776  0.47363760  0.01168892     0.05920
C705        C  0.56075687  0.45958544  0.98105015    -0.04040
C706        C  0.59511641  0.44379512  0.99171049    -0.08490
C707        C  0.61107142  0.44241909  0.03234799     0.05040
C708        C  0.59445834  0.45847524  0.06140696    -0.03520
Br709      Br  0.62359351  0.46280882  0.11343180    -0.03210
H710        H  0.54286543  0.48315563  0.07610802     0.08950
H711        H  0.60786615  0.43186720  0.96863180     0.06970
Br712      Br  0.54290189  0.46024977  0.92457246    -0.03640
C713        C  0.39896149  0.55589865  0.50264301    -0.10280
C714        C  0.36431372  0.54525365  0.48038058     0.05920
C715        C  0.36998022  0.52184947  0.46877844    -0.04040
C716        C  0.41228609  0.51149073  0.47148633    -0.08490
C717        C  0.44778830  0.52200802  0.49302543     0.05040
C718        C  0.43959505  0.54424166  0.51042706    -0.03520
Br719      Br  0.48186926  0.55981723  0.54525282    -0.03210
H720        H  0.39484738  0.57353094  0.51349769     0.08950
H721        H  0.41715080  0.49511883  0.45605239     0.06970
Br722      Br  0.32178245  0.50283896  0.44865059    -0.03640
C723        C  0.39527953  0.54924783  0.24732942    -0.10280
C724        C  0.37566965  0.54820419  0.28687017     0.05920
C725        C  0.39660211  0.53445237  0.31722998    -0.04040
C726        C  0.43370449  0.52092182  0.30767027    -0.08490
C727        C  0.45380894  0.52198925  0.26876835     0.05040
C728        C  0.43442439  0.53647673  0.23821033    -0.03520
Br729      Br  0.45745160  0.53815005  0.18290872    -0.03210
H730        H  0.37991230  0.55972931  0.22340392     0.08950
H731        H  0.44715841  0.50967948  0.33127651     0.06970
Br732      Br  0.38033612  0.53527419  0.37383545    -0.03640
C733        C  0.07011450  0.59158418  0.22458671    -0.10280
C734        C  0.09078418  0.57255564  0.24382741     0.05920
C735        C  0.08166259  0.55019293  0.22829487    -0.04040
C736        C  0.05208383  0.54740241  0.19445310    -0.08490
C737        C  0.03110065  0.56667718  0.17548271     0.05040
C738        C  0.04098163  0.58894952  0.19130881    -0.03520
Br739      Br  0.01816520  0.61711617  0.16774285    -0.03210
H740        H  0.07750355  0.60900320  0.23508681     0.08950
H741        H  0.04444018  0.53009708  0.18369853     0.06970
Br742      Br  0.10983478  0.52322972  0.25123320    -0.03640
C743        C  0.07488600  0.55047983  0.01494513    -0.10280
C744        C  0.10436348  0.56915891  0.51981291     0.05920
C745        C  0.10451553  0.58069522  0.55877986    -0.04040
C746        C  0.07105391  0.57622809  0.08790651    -0.08490
C747        C  0.03864157  0.55913933  0.08169774     0.05040
C748        C  0.04323712  0.54498918  0.04595804    -0.03520
Br749      Br  0.00591551  0.51845318  0.03701377    -0.03210
H750        H  0.07553955  0.54050558  0.48662671     0.08950
H751        H  0.06900781  0.58761349  0.11402910     0.06970
Br752      Br  0.14811133  0.60327585  0.57638887    -0.03640
C753        C  0.39072479  0.70562222  0.45808350    -0.10280
C754        C  0.38271370  0.68521526  0.48117923     0.05920
C755        C  0.40674942  0.68173820  0.51803173    -0.04040
C756        C  0.43909071  0.69809943  0.52980464    -0.08490
C757        C  0.44847738  0.71775951  0.50513480     0.05040
C758        C  0.42348687  0.72142203  0.46894902    -0.03520
Br759      Br  0.43486400  0.74594486  0.42979362    -0.03210
H760        H  0.37268558  0.70914364  0.42977483     0.08950
H761        H  0.45830313  0.69492264  0.05750936     0.06970
Br762      Br  0.39937374  0.65467963  0.05195737    -0.03640
C763        C  0.40399406  0.68280732  0.23359726    -0.10280
C764        C  0.37624221  0.68761579  0.26754056     0.05920
C765        C  0.38054583  0.70934147  0.28771072    -0.04040
C766        C  0.41768395  0.72296306  0.28007000    -0.08490
C767        C  0.44725142  0.71789403  0.24766556     0.05040
C768        C  0.43843976  0.69826749  0.22261929    -0.03520
Br769      Br  0.47414544  0.69093477  0.17506159    -0.03210
H770        H  0.40019444  0.66671607  0.21679522     0.08950
H771        H  0.42397169  0.73732013  0.30068900     0.06970
Br772      Br  0.33782739  0.72238566  0.32631729    -0.03640
C773        C  0.55982426  0.53247584  0.23680617    -0.10280
C774        C  0.53892699  0.51986740  0.26882023     0.05920
C775        C  0.55805290  0.52069206  0.30857853    -0.04040
C776        C  0.59628523  0.53392690  0.31588086    -0.08490
C777        C  0.61630068  0.54719850  0.28446140     0.05040
C778        C  0.59777561  0.54632962  0.24437258    -0.03520
Br779      Br  0.62338227  0.56297320  0.19860132    -0.03210
H780        H  0.54672294  0.53165634  0.20580190     0.08950
H781        H  0.60982661  0.53423871  0.34691368     0.06970
Br782      Br  0.53381747  0.50436651  0.35486914    -0.03640
C783        C  0.57744658  0.55085667  0.44319863    -0.10280
C784        C  0.61327186  0.55014630  0.47081616     0.05920
C785        C  0.60894842  0.53760893  0.50781520    -0.04040
C786        C  0.56971011  0.52499749  0.51567378    -0.08490
C787        C  0.53435566  0.52428341  0.48687565     0.05040
C788        C  0.53768700  0.53886601  0.45149924    -0.03520
Br789      Br  0.48898453  0.54548682  0.41475432    -0.03210
H790        H  0.58001615  0.56135642  0.41542206     0.08950
H791        H  0.56624150  0.51668495  0.04533398     0.06970
Br792      Br  0.65587446  0.53708232  0.04819812    -0.03640
C793        C  0.88684606  0.55552653  0.03828118    -0.10280
C794        C  0.89331377  0.57386596  0.50994315     0.05920
C795        C  0.93096621  0.58820604  0.51478734    -0.04040
C796        C  0.96182183  0.58380343  0.04630089    -0.08490
C797        C  0.95595761  0.56549073  0.07500960     0.05040
C798        C  0.91768505  0.55123352  0.07058420    -0.03520
Br799      Br  0.90702998  0.52515375  0.10613911    -0.03210
H800        H  0.85722039  0.54477165  0.03579144     0.08950
H801        H  0.99068213  0.59511532  0.04880215     0.06970
Br802      Br  0.94124090  0.61456470  0.47953391    -0.03640
C803        C  0.88886727  0.58758304  0.20304480    -0.10280
C804        C  0.88733994  0.57323261  0.23850524     0.05920
C805        C  0.91419227  0.55315375  0.23868769    -0.04040
C806        C  0.94344597  0.54885297  0.20523862    -0.08490
C807        C  0.94794170  0.56452451  0.17156993     0.05040
C808        C  0.91829028  0.58365090  0.17020376    -0.03520
Br809      Br  0.91626224  0.60670115  0.12728685    -0.03210
H810        H  0.86775740  0.60284391  0.20094116     0.08950
H811        H  0.96503609  0.53376341  0.20685607     0.06970
Br812      Br  0.91419895  0.53157919  0.28388881    -0.03640
C813        C  0.60280796  0.69687464  0.23441515    -0.10280
C814        C  0.59516647  0.67911054  0.26336598     0.05920
C815        C  0.55421038  0.67812050  0.28423600    -0.04040
C816        C  0.52421184  0.69639815  0.28078740    -0.08490
C817        C  0.53066657  0.71457747  0.25185348     0.05040
C818        C  0.56994542  0.71392150  0.22687680    -0.03520
Br819      Br  0.58064863  0.73439693  0.18123877    -0.03210
H820        H  0.63470761  0.69771905  0.21823158     0.08950
H821        H  0.49445448  0.69576966  0.30012900     0.06970
Br822      Br  0.53833967  0.65197876  0.31834339    -0.03640
C823        C  0.58458235  0.68729963  0.51729260    -0.10280
C824        C  0.59138841  0.68411570  0.47470740     0.05920
C825        C  0.56758845  0.69849557  0.44663727    -0.04040
C826        C  0.53917772  0.71561507  0.46106540    -0.08490
C827        C  0.53095999  0.71834058  0.50308221     0.05040
C828        C  0.55409879  0.70418788  0.53153340    -0.03520
Br829      Br  0.54548203  0.70752828  0.08955652    -0.03210
H830        H  0.60329680  0.67699242  0.53935272     0.08950
H831        H  0.52111150  0.72607511  0.43886756     0.06970
Br832      Br  0.56901800  0.69570702  0.38755176    -0.03640
C833        C  0.93661067  0.71587164  0.45299690    -0.10280
C834        C  0.95067557  0.71670958  0.49394761     0.05920
C835        C  0.92808888  0.70325691  0.52416364    -0.04040
C836        C  0.89041523  0.69021446  0.51296706    -0.08490
C837        C  0.87596115  0.68992343  0.47178132     0.05040
C838        C  0.90074229  0.70214179  0.44160536    -0.03520
Br839      Br  0.89047564  0.69923478  0.38368061    -0.03210
H840        H  0.95383253  0.72571704  0.42942977     0.08950
H841        H  0.87193072  0.68076597  0.53649548     0.06970
Br842      Br  0.94442219  0.70402186  0.08146767    -0.03640
C843        C  0.04993888  0.70190648  0.52277682    -0.10280
C844        C  0.03350015  0.71842948  0.49468851     0.05920
C845        C  0.05347020  0.72007245  0.45509106    -0.04040
C846        C  0.08979900  0.70600821  0.44501744    -0.08490
C847        C  0.10677185  0.68955934  0.47306254     0.05040
C848        C  0.08612459  0.68742005  0.51235470    -0.03520
Br849      Br  0.10488875  0.66533135  0.55328269    -0.03210
H850        H  0.03441228  0.70006996  0.55285688     0.08950
H851        H  0.10496044  0.70817960  0.41474042     0.06970
Br852      Br  0.03751111  0.74375797  0.41550863    -0.03640
C853        C  0.38564791  0.89492326  0.45355196    -0.10280
C854        C  0.38374899  0.91022976  0.98738362     0.05920
C855        C  0.41590257  0.92796261  0.98956926    -0.04040
C856        C  0.44936181  0.92988682  0.45904904    -0.08490
C857        C  0.45314275  0.91393207  0.42608860     0.05040
C858        C  0.42017583  0.89625169  0.42360851    -0.03520
Br859      Br  0.42238794  0.87165553  0.38382463    -0.03210
H860        H  0.36158277  0.88089841  0.45171734     0.08950
H861        H  0.47381543  0.94363848  0.46200888     0.06970
Br862      Br  0.41572198  0.95001641  0.03382478    -0.03640
C863        C  0.39184708  0.93052090  0.29693499    -0.10280
C864        C  0.39506298  0.91354369  0.26593447     0.05920
C865        C  0.42979100  0.89694266  0.26823978    -0.04040
C866        C  0.46136203  0.89823887  0.29973577    -0.08490
C867        C  0.45948721  0.91562846  0.33014580     0.05040
C868        C  0.42388780  0.93186718  0.32867331    -0.03520
Br869      Br  0.41853793  0.95701906  0.36701741    -0.03210
H870        H  0.36454921  0.94295955  0.29616425     0.08950
H871        H  0.48773983  0.88528721  0.30061405     0.06970
Br872      Br  0.43455975  0.87085595  0.23149939    -0.03640
C873        C  0.09066582  0.95523801  0.20341173    -0.10280
C874        C  0.11756921  0.94696630  0.23571619     0.05920
C875        C  0.10697057  0.95408296  0.27635694    -0.04040
C876        C  0.06823498  0.96794662  0.28334703    -0.08490
C877        C  0.03755683  0.97239090  0.25093721     0.05040
C878        C  0.04917097  0.96492547  0.21105963    -0.03520
Br879      Br  0.00943723  0.96500923  0.16517902    -0.03210
H880        H  0.09860607  0.95102327  0.17153599     0.08950
H881        H  0.06023661  0.97359875  0.31442166     0.06970
Br882      Br  0.14163958  0.94405872  0.32274024    -0.03640
C883        C  0.09982439  0.96110233  0.05575059    -0.10280
C884        C  0.10683058  0.94106523  0.03208796     0.05920
C885        C  0.07761977  0.93674364  0.99894765    -0.04040
C886        C  0.04129924  0.95180588  0.99122203    -0.08490
C887        C  0.03332193  0.97170939  0.01563077     0.05040
C888        C  0.06404442  0.97631168  0.04780522    -0.03520
Br889      Br  0.05703964  0.00151480  0.08531430    -0.03210
H890        H  0.12105606  0.96430447  0.08224245     0.08950
H891        H  0.01893325  0.94761201  0.96618711     0.06970
Br892      Br  0.08321164  0.90927558  0.96605263    -0.03640
C893        C  0.40943541  0.76063507  0.04328263    -0.10280
C894        C  0.44681833  0.76914124  0.02083483     0.05920
C895        C  0.44196889  0.79099214  0.00079150    -0.04040
C896        C  0.40310812  0.80432047  0.00680485    -0.08490
C897        C  0.36700320  0.79592695  0.03018234     0.05040
C898        C  0.36929356  0.77329781  0.04597936    -0.03520
Br899      Br  0.31746234  0.75896307  0.07003105    -0.03210
H900        H  0.41123941  0.74419060  0.05933159     0.08950
H901        H  0.40174828  0.82179837  0.99440562     0.06970
Br902      Br  0.48519060  0.80377280  0.46307717    -0.03640
C903        C  0.40298637  0.80121778  0.27161058    -0.10280
C904        C  0.37294906  0.79761718  0.23905655     0.05920
C905        C  0.37881474  0.77817668  0.21361229    -0.04040
C906        C  0.41695818  0.76429464  0.21727241    -0.08490
C907        C  0.44843176  0.76818114  0.24877595     0.05040
C908        C  0.44005928  0.78640312  0.27712610    -0.03520
Br909      Br  0.47916934  0.79242968  0.32273004    -0.03210
H910        H  0.39926122  0.81634664  0.29112359     0.08950
H911        H  0.42261327  0.75079419  0.19462536     0.06970
Br912      Br  0.33575012  0.77064192  0.17229215    -0.03640
C913        C  0.07031453  0.76725624  0.00987690    -0.10280
C914        C  0.02674189  0.76811246  0.02757125     0.05920
C915        C  0.01954476  0.78420567  0.05992156    -0.04040
C916        C  0.05369550  0.79928561  0.07130634    -0.08490
C917        C  0.09605907  0.79896084  0.05181566     0.05040
C918        C  0.10469515  0.78214670  0.02180677    -0.03520
Br919      Br  0.16259322  0.77814344  0.99632624    -0.03210
H920        H  0.07887301  0.75592204  0.98540820     0.08950
H921        H  0.04638825  0.81167920  0.09553432     0.06970
Br922      Br  0.96456502  0.78694575  0.09125285    -0.03640
C923        C  0.07144068  0.77134306  0.27811766    -0.10280
C924        C  0.04644021  0.76385525  0.24377613     0.05920
C925        C  0.06352373  0.76816053  0.20395882    -0.04040
C926        C  0.10061229  0.78254343  0.19876484    -0.08490
C927        C  0.12061134  0.79365696  0.23265835     0.05040
C928        C  0.10769425  0.78681092  0.27285550    -0.03520
Br929      Br  0.13388067  0.80041679  0.32094977    -0.03210
H930        H  0.05993745  0.76712388  0.30905816     0.08950
H931        H  0.11116834  0.78681602  0.16752310     0.06970
Br932      Br  0.03622750  0.75574451  0.15534249    -0.03640
C933        C  0.94194821  0.69924188  0.23754810    -0.10280
C934        C  0.94901423  0.71975587  0.26013566     0.05920
C935        C  0.91428479  0.72795103  0.28612129    -0.04040
C936        C  0.87389763  0.71595776  0.28829885    -0.08490
C937        C  0.86883190  0.69409790  0.26980907     0.05040
C938        C  0.90283556  0.68608221  0.24285254    -0.03520
Br939      Br  0.90012253  0.65687579  0.21469521    -0.03210
H940        H  0.96811364  0.69276104  0.21722774     0.08950
H941        H  0.84800346  0.72269046  0.30865130     0.06970
Br942      Br  0.92180587  0.75223685  0.32607081    -0.03640
C943        C  0.06268460  0.70996385  0.23168848    -0.10280
C944        C  0.03320194  0.71508634  0.26456137     0.05920
C945        C  0.03945051  0.70381672  0.30272369    -0.04040
C946        C  0.07711822  0.69018851  0.30907585    -0.08490
C947        C  0.10802089  0.68643261  0.27722720     0.05040
C948        C  0.10008965  0.69566680  0.23775981    -0.03520
Br949      Br  0.14029836  0.69028031  0.19232395    -0.03210
H950        H  0.05655565  0.71687909  0.20128477     0.08950
H951        H  0.08244091  0.68247571  0.33929532     0.06970
Br952      Br  0.99769781  0.70532565  0.34722155    -0.03640
C953        C  0.58695981  0.93358116  0.27721535    -0.10280
C954        C  0.61180303  0.91298835  0.27413910     0.05920
C955        C  0.60338635  0.89512616  0.30334992    -0.04040
C956        C  0.56973730  0.89779258  0.33365607    -0.08490
C957        C  0.54338533  0.91801461  0.33563313     0.05040
C958        C  0.55344316  0.93625577  0.30765863    -0.03520
Br959      Br  0.52170484  0.96516139  0.30910882    -0.03210
H960        H  0.59320874  0.94755568  0.25548663     0.08950
H961        H  0.56173619  0.88325793  0.35364241     0.06970
Br962      Br  0.63287786  0.86551822  0.30036770    -0.03640
C963        C  0.56138460  0.93483273  0.43412491    -0.10280
C964        C  0.53772136  0.91414279  0.42676128     0.05920
C965        C  0.54876425  0.89423992  0.45006171    -0.04040
C966        C  0.58051938  0.89554596  0.98152762    -0.08490
C967        C  0.60267843  0.91636952  0.99015524     0.05040
C968        C  0.59407852  0.93594525  0.46531996    -0.03520
Br969      Br  0.62528543  0.96448887  0.97388224    -0.03210
H970        H  0.55315438  0.95032814  0.41669946     0.08950
H971        H  0.58848787  0.88003959  0.99910699     0.06970
Br972      Br  0.52257671  0.86455454  0.43970635    -0.03640
C973        C  0.93165320  0.96084548  0.97639974    -0.10280
C974        C  0.94711646  0.97365428  0.01061907     0.05920
C975        C  0.92229976  0.97239586  0.04765975    -0.04040
C976        C  0.88560712  0.95767978  0.05116292    -0.08490
C977        C  0.87373693  0.94273753  0.01916640     0.05040
C978        C  0.89580121  0.94500317  0.98071932    -0.03520
Br979      Br  0.88175559  0.92509978  0.43531452    -0.03210
H980        H  0.94919793  0.96203496  0.44706813     0.08950
H981        H  0.86902653  0.95607325  0.08089289     0.06970
Br982      Br  0.93933223  0.98762144  0.09689383    -0.03640
C983        C  0.91053685  0.93308351  0.26135936    -0.10280
C984        C  0.88231446  0.93821440  0.22803567     0.05920
C985        C  0.88646763  0.95992270  0.20835071    -0.04040
C986        C  0.92096449  0.97520285  0.21953799    -0.08490
C987        C  0.95197148  0.96929716  0.25068310     0.05040
C988        C  0.94472673  0.94845411  0.27304736    -0.03520
Br989      Br  0.97930281  0.94031360  0.32077434    -0.03210
H990        H  0.90719478  0.91662354  0.27731678     0.08950
H991        H  0.92482619  0.99129060  0.20252100     0.06970
Br992      Br  0.84534281  0.96929612  0.16609043    -0.03640
C993        C  0.60778892  0.78603085  0.25353961    -0.10280
C994        C  0.60112601  0.80282518  0.22228134     0.05920
C995        C  0.55840726  0.80355005  0.20283370    -0.04040
C996        C  0.52702572  0.78655643  0.21075532    -0.08490
C997        C  0.53282252  0.76959878  0.24123770     0.05040
C998        C  0.57331869  0.77003517  0.26426882    -0.03520
Br999      Br  0.58194201  0.75101831  0.31225356    -0.03210
H1000       H  0.63921143  0.78566541  0.27020897     0.08950
H1001       H  0.49593811  0.78748107  0.19369613     0.06970
Br1002     Br  0.53552751  0.82799069  0.16747954    -0.03640
C1003       C  0.56485543  0.77192511  0.99414365    -0.10280
C1004       C  0.53343487  0.76739005  0.02603093     0.05920
C1005       C  0.54198448  0.77607831  0.06555778    -0.04040
C1006       C  0.57849803  0.79069881  0.07204672    -0.08490
C1007       C  0.60680263  0.79790250  0.03927931     0.05040
C1008       C  0.60085667  0.78747724  0.00022813    -0.03520
Br1009     Br  0.63766693  0.79534604  0.95353371    -0.03210
H1010       H  0.55922453  0.76495069  0.96357807     0.08950
H1011       H  0.58324688  0.79743889  0.10291018     0.06970
Br1012     Br  0.50324250  0.76898470  0.11139137    -0.03640
C1013       C  0.90412969  0.76015510  0.02290038    -0.10280
C1014       C  0.94439290  0.76726298  0.00343170     0.05920
C1015       C  0.94406610  0.78869877  0.98181024    -0.04040
C1016       C  0.90678609  0.80348306  0.98477776    -0.08490
C1017       C  0.86865956  0.79697863  0.00746799     0.05040
C1018       C  0.86621179  0.77447360  0.02367272    -0.03520
Br1019     Br  0.81312382  0.76387834  0.05160550    -0.03210
H1020       H  0.90293438  0.74462774  0.04131137     0.08950
H1021       H  0.90911640  0.82091074  0.97231347     0.06970
Br1022     Br  0.99466257  0.79989311  0.45071101    -0.03640
C1023       C  0.93138010  0.76184563  0.20704571    -0.10280
C1024       C  0.96131044  0.76923829  0.23782673     0.05920
C1025       C  0.95212687  0.79051807  0.25826825    -0.04040
C1026       C  0.91333947  0.80313820  0.24869699    -0.08490
C1027       C  0.88354184  0.79538365  0.21855073     0.05040
C1028       C  0.89281790  0.77458738  0.19766673    -0.03520
Br1029     Br  0.85372075  0.76303231  0.15579461    -0.03210
H1030       H  0.93797181  0.74598667  0.19018788     0.08950
H1031       H  0.90737814  0.81966122  0.26367690     0.06970
Br1032     Br  0.98852823  0.80314107  0.30138624    -0.03640
N1033       N  0.80344193  0.83885037  0.69576430    -0.07240
N1034       N  0.81578694  0.82178064  0.72092706    -0.59360
N1035       N  0.83508004  0.89308411  0.66893863    -0.06920
N1036       N  0.86512619  0.90968432  0.67308468    -0.61490
N1037       N  0.80762063  0.89255535  0.70102960    -0.06520
N1038       N  0.81894357  0.90889556  0.72787644    -0.59330
N1039       N  0.83123380  0.83990018  0.66411705    -0.06190
N1040       N  0.86176133  0.82349357  0.66612389    -0.61840
C1041       C  0.85164399  0.81212048  0.70116832     0.94940
C1042       C  0.85467754  0.91953878  0.70969866     0.94720
N1043       N  0.80107981  0.89529624  0.54204600    -0.07420
N1044       N  0.81086474  0.91266981  0.51634514    -0.59940
N1045       N  0.82741759  0.84163519  0.57003841    -0.05540
N1046       N  0.85744798  0.82546536  0.56241791    -0.61190
N1047       N  0.79579064  0.84162273  0.54187684    -0.07450
N1048       N  0.80411672  0.82536995  0.51386090    -0.60200
N1049       N  0.83127962  0.89415318  0.57151435    -0.05190
N1050       N  0.86199495  0.91019233  0.56664998    -0.61280
Mn1051     Mn  0.83171280  0.86743113  0.61877703     1.18440
C1052       C  0.84931555  0.92163772  0.53231020     0.97020
C1053       C  0.84259499  0.81540234  0.52763460     0.97680
N1054       N  0.70037880  0.89419134  0.70946715    -0.07470
N1055       N  0.68662854  0.90147088  0.74613320    -0.63780
N1056       N  0.66382323  0.84618100  0.67171980    -0.06280
N1057       N  0.62956202  0.83229004  0.67448662    -0.64460
N1058       N  0.69311264  0.84185453  0.70099128    -0.06980
N1059       N  0.67722752  0.82494530  0.72547866    -0.64050
N1060       N  0.66891813  0.89786148  0.68139513    -0.05880
N1061       N  0.63329728  0.90740357  0.69954036    -0.64740
Mn1062     Mn  0.75165902  0.86654438  0.70317298     1.10660
C1063       C  0.64496682  0.90986885  0.73979797     0.98240
C1064       C  0.63687650  0.81927977  0.70793013     0.98320
N1065       N  0.68705703  0.84436251  0.54871970    -0.06990
N1066       N  0.67425067  0.82571069  0.52742552    -0.62360
N1067       N  0.66533048  0.90008548  0.57608654    -0.06310
N1068       N  0.62890545  0.91062877  0.56197324    -0.59090
N1069       N  0.69464602  0.89781219  0.54551736    -0.07620
N1070       N  0.67902256  0.90741365  0.51141745    -0.61930
N1071       N  0.65858536  0.84798325  0.57921649    -0.06600
N1072       N  0.62689276  0.83227454  0.57972249    -0.59110
Mn1073     Mn  0.74464270  0.86956471  0.54320590     1.20190
Mn1074     Mn  0.66464861  0.87406961  0.62700355     1.10090
Cl1075     Cl  0.74801446  0.86988719  0.62317996    -0.87080
C1076       C  0.63639478  0.81831909  0.54772800     0.95250
C1077       C  0.63818727  0.91563717  0.52180892     0.95050
C1078       C  0.00037633  0.75390061  0.74895562    -0.00560
C1079       C  0.99430595  0.73086901  0.75808406    -0.00560
N1080       N  0.18029104  0.84188682  0.56580388    -0.07240
N1081       N  0.16585804  0.82420153  0.54330896    -0.59360
N1082       N  0.15771772  0.89723570  0.59177104    -0.06920
N1083       N  0.12762387  0.91377915  0.58743289    -0.61490
N1084       N  0.18381722  0.89572106  0.55889218    -0.06520
N1085       N  0.17111663  0.91143796  0.53100245    -0.59330
N1086       N  0.15340000  0.84482047  0.59753800    -0.06190
N1087       N  0.12113241  0.82952978  0.59805908    -0.61840
C1088       C  0.12890673  0.81663321  0.56447594     0.94940
C1089       C  0.13612237  0.92266166  0.54972672     0.94720
N1090       N  0.19201093  0.89881103  0.71745555    -0.07420
N1091       N  0.18245447  0.91679280  0.74204723    -0.59940
N1092       N  0.15842657  0.84602031  0.68975788    -0.05540
N1093       N  0.12971406  0.82890433  0.69163756    -0.61190
N1094       N  0.18936914  0.84396803  0.71825024    -0.07450
N1095       N  0.18187008  0.82483692  0.74052322    -0.60200
N1096       N  0.16306112  0.89815306  0.68710698    -0.05190
N1097       N  0.13384018  0.91483480  0.68994927    -0.61280
Mn1098     Mn  0.15827674  0.87182996  0.64162579     1.18440
C1099       C  0.14577324  0.92669412  0.72367604     0.97020
C1100       C  0.14417316  0.81570257  0.72308549     0.97680
N1101       N  0.29278252  0.89174127  0.55033218    -0.07470
N1102       N  0.30760632  0.89934244  0.51409850    -0.63780
N1103       N  0.32029698  0.84109553  0.58801701    -0.06280
N1104       N  0.35093296  0.82491158  0.58301768    -0.64460
N1105       N  0.28893461  0.83954237  0.55958234    -0.06980
N1106       N  0.29864754  0.82225983  0.53388633    -0.64050
N1107       N  0.32479707  0.89328310  0.57842825    -0.05880
N1108       N  0.36152088  0.90207698  0.56111509    -0.64740
Mn1109     Mn  0.23608114  0.86716497  0.55717663     1.10660
C1110       C  0.35021408  0.90617648  0.52116821     0.98240
C1111       C  0.33708036  0.81309822  0.54972577     0.98320
N1112       N  0.29747803  0.84338717  0.71446450    -0.06990
N1113       N  0.30906990  0.82689200  0.74118241    -0.62360
N1114       N  0.32863866  0.89595647  0.68245146    -0.06310
N1115       N  0.36676870  0.90520759  0.69508485    -0.59090
N1116       N  0.29928465  0.89597806  0.71336549    -0.07620
N1117       N  0.31704416  0.90547016  0.74654815    -0.61930
N1118       N  0.32580192  0.84366828  0.68307080    -0.06600
N1119       N  0.35641285  0.82741191  0.68721083    -0.59110
Mn1120     Mn  0.24434862  0.87053226  0.71756548     1.20190
Mn1121     Mn  0.32500663  0.86916869  0.63296480     1.10090
Cl1122     Cl  0.24132638  0.87001265  0.63721727    -0.87080
C1123       C  0.34582807  0.81706695  0.72325469     0.95250
C1124       C  0.35902894  0.91126242  0.73493552     0.95050
C1125       C  0.98786628  0.75422493  0.51066533    -0.00560
C1126       C  0.99074675  0.73077017  0.00356646    -0.00560
N1127       N  0.78439528  0.65252783  0.95410948    -0.07240
N1128       N  0.81863138  0.65816022  0.97797537    -0.59360
N1129       N  0.68115361  0.65996019  0.92028827    -0.06920
N1130       N  0.64852382  0.67489335  0.92367844    -0.61490
N1131       N  0.68178348  0.64544826  0.95160252    -0.06520
N1132       N  0.64865095  0.65083186  0.97775813    -0.59330
N1133       N  0.78031868  0.66750232  0.92368266    -0.06190
N1134       N  0.81046986  0.68389287  0.92669218    -0.61840
C1135       C  0.83458871  0.67779343  0.96011127     0.94940
C1136       C  0.62773056  0.66910327  0.95881196     0.94720
N1137       N  0.68459668  0.64392141  0.79759769    -0.07420
N1138       N  0.65429702  0.64793115  0.76853783    -0.59940
N1139       N  0.78186428  0.66732894  0.82633105    -0.05540
N1140       N  0.80897967  0.68492940  0.82038334    -0.61190
N1141       N  0.78623520  0.65204178  0.79666923    -0.07450
N1142       N  0.81762265  0.65879844  0.77008580    -0.60200
N1143       N  0.68199335  0.65982105  0.82644663    -0.05190
N1144       N  0.64992056  0.67475363  0.81840724    -0.61280
Mn1145     Mn  0.73175108  0.66370708  0.87439273     1.18440
C1146       C  0.63302559  0.66722659  0.78245737     0.97020
C1147       C  0.83138448  0.67951299  0.78534657     0.97680
N1148       N  0.70108253  0.58974542  0.95296158    -0.07470
N1149       N  0.66582367  0.58366191  0.97546922    -0.63780
N1150       N  0.81194420  0.58362122  0.93054054    -0.06280
N1151       N  0.84667344  0.57117661  0.94401853    -0.64460
N1152       N  0.80142742  0.59949573  0.95837809    -0.06980
N1153       N  0.82889901  0.59854746  0.99014354    -0.64050
N1154       N  0.71069112  0.57351863  0.92559385    -0.05880
N1155       N  0.68165071  0.55634615  0.92848339    -0.64740
Mn1156     Mn  0.74134006  0.62170491  0.95580143     1.10660
C1157       C  0.65446800  0.56270817  0.95998689     0.98240
C1158       C  0.85692568  0.58093697  0.98116188     0.98320
N1159       N  0.80246884  0.59939508  0.79807939    -0.06990
N1160       N  0.82851573  0.59858400  0.76557022    -0.62360
N1161       N  0.71187947  0.57284241  0.82983327    -0.06310
N1162       N  0.68347535  0.55541844  0.82735916    -0.59090
N1163       N  0.70253343  0.58868616  0.80165690    -0.07620
N1164       N  0.66780474  0.58204622  0.77916352    -0.61930
N1165       N  0.81292928  0.58311631  0.82507256    -0.06600
N1166       N  0.84644412  0.57032381  0.80957955    -0.59110
Mn1167     Mn  0.74326059  0.62078264  0.79765982     1.20190
Mn1168     Mn  0.76378407  0.57739906  0.87781308     1.10090
Cl1169     Cl  0.74541995  0.62056840  0.87659630    -0.87080
C1170       C  0.85591795  0.58058641  0.77225980     0.95250
C1171       C  0.65639432  0.56113896  0.79550266     0.95050
N1172       N  0.19880634  0.64919268  0.79615706    -0.07240
N1173       N  0.16553215  0.65501169  0.77127098    -0.59360
N1174       N  0.30268292  0.65643744  0.83002640    -0.06920
N1175       N  0.33248675  0.67263143  0.82484962    -0.61490
N1176       N  0.30033554  0.64292361  0.79762981    -0.06520
N1177       N  0.32794587  0.65085956  0.76828384    -0.59330
N1178       N  0.20217414  0.66417499  0.82641041    -0.06190
N1179       N  0.17191568  0.68060030  0.82295204    -0.61840
C1180       C  0.14966154  0.67483106  0.78838820     0.94940
C1181       C  0.34753809  0.66963234  0.78641449     0.94720
N1182       N  0.29954611  0.64355390  0.95309068    -0.07420
N1183       N  0.32966501  0.64996670  0.98110579    -0.59940
N1184       N  0.20029321  0.66494839  0.92233454    -0.05540
N1185       N  0.16977123  0.68135239  0.92494885    -0.61190
N1186       N  0.19657114  0.65030254  0.95318938    -0.07450
N1187       N  0.16260539  0.65632012  0.97747516    -0.60200
N1188       N  0.30116134  0.65778309  0.92154029    -0.05190
N1189       N  0.33226557  0.67339736  0.92619766    -0.61280
Mn1190     Mn  0.25122190  0.66076506  0.87504107     1.18440
C1191       C  0.35012240  0.66868508  0.96317429     0.97020
C1192       C  0.14633288  0.67588471  0.95944872     0.97680
N1193       N  0.28444484  0.58719530  0.80080965    -0.07470
N1194       N  0.32098159  0.58145670  0.77960039    -0.63780
N1195       N  0.17328852  0.58029609  0.82374280    -0.06280
N1196       N  0.13812185  0.56811247  0.81039952    -0.64460
N1197       N  0.18371794  0.59615568  0.79575297    -0.06980
N1198       N  0.15604602  0.59555396  0.76436922    -0.64050
N1199       N  0.27499492  0.57115163  0.82870561    -0.05880
N1200       N  0.30487042  0.55435175  0.82686314    -0.64740
Mn1201     Mn  0.24249070  0.61859737  0.79619890     1.10660
C1202       C  0.33352474  0.56091585  0.79651465     0.98240
C1203       C  0.12775059  0.57814927  0.77320831     0.98320
N1204       N  0.18255982  0.59771864  0.95571002    -0.06990
N1205       N  0.15790077  0.59658599  0.98910766    -0.62360
N1206       N  0.27373591  0.57131066  0.92615844    -0.06310
N1207       N  0.30019975  0.55330393  0.93247554    -0.59090
N1208       N  0.28248924  0.58774108  0.95324931    -0.07620
N1209       N  0.31501266  0.58102106  0.97842649    -0.61930
N1210       N  0.17319972  0.58068187  0.93005791    -0.06600
N1211       N  0.14233897  0.56700970  0.94773020    -0.59110
Mn1212     Mn  0.24106331  0.61967495  0.95485389     1.20190
Mn1213     Mn  0.22205466  0.57490472  0.87697300     1.10090
Cl1214     Cl  0.23899641  0.61825792  0.87577827    -0.87080
C1215       C  0.13325837  0.57749237  0.98486160     0.95250
C1216       C  0.32563000  0.55934673  0.96524698     0.95050
C1217       C  0.49211098  0.75460250  0.74887478    -0.00560
C1218       C  0.49125901  0.73060578  0.74595472    -0.00560
C1219       C  0.48993644  0.75508106  0.51816698    -0.00560
C1220       C  0.48971801  0.73146387  0.01349354    -0.00560
C1221       C  0.49623379  0.91451899  0.90084970    -0.00560
C1222       C  0.49899671  0.91735273  0.85849370    -0.00560
C1223       C  0.99435784  0.56086066  0.60450308    -0.00560
C1224       C  0.99113646  0.56356354  0.64727149    -0.00560
C1225       C  0.49314438  0.50994626  0.99584273    -0.00560
C1226       C  0.49630577  0.48644975  0.50517510    -0.00560
C1227       C  0.49505605  0.50780761  0.76185154    -0.00560
C1228       C  0.49238223  0.48413669  0.75835004    -0.00560
N1229       N  0.30070073  0.40005746  0.55129231    -0.07240
N1230       N  0.31171561  0.41727635  0.52579408    -0.59360
N1231       N  0.33185739  0.34749383  0.57817136    -0.06920
N1232       N  0.36383231  0.33212849  0.57291462    -0.61490
N1233       N  0.30218310  0.34626992  0.54841688    -0.06520
N1234       N  0.31399120  0.32985055  0.52162312    -0.59330
N1235       N  0.32817070  0.39992635  0.58297252    -0.06190
N1236       N  0.35766314  0.41669642  0.58035031    -0.61840
C1237       C  0.34712251  0.42753908  0.54498709     0.94940
C1238       C  0.35274769  0.32122235  0.53774938     0.94720
N1239       N  0.30230049  0.34150357  0.70211282    -0.07420
N1240       N  0.31490796  0.32319383  0.72464831    -0.59940
N1241       N  0.32978664  0.39728346  0.67839526    -0.05540
N1242       N  0.35895435  0.41407326  0.68404482    -0.61190
N1243       N  0.30186535  0.39563988  0.70982010    -0.07450
N1244       N  0.31183094  0.41156931  0.73798107    -0.60200
N1245       N  0.33088642  0.34460084  0.67165263    -0.05190
N1246       N  0.36226481  0.32882769  0.67200967    -0.61280
Mn1247     Mn  0.33008783  0.37257774  0.62788395     1.18440
C1248       C  0.35265503  0.31538044  0.70475658     0.97020
C1249       C  0.34743067  0.42301984  0.72101116     0.97680
N1250       N  0.19211522  0.34578408  0.54976017    -0.07470
N1251       N  0.18111144  0.32816985  0.52506745    -0.63780
N1252       N  0.16239499  0.39970853  0.57762571    -0.06280
N1253       N  0.12532415  0.40872702  0.56165277    -0.64460
N1254       N  0.19377663  0.39882252  0.54855441    -0.06980
N1255       N  0.17868318  0.40778801  0.51367822    -0.64050
N1256       N  0.16152418  0.34801207  0.57908919    -0.05880
N1257       N  0.12980762  0.33253069  0.57498840    -0.64740
Mn1258     Mn  0.24745508  0.37248511  0.54812984     1.10660
C1259       C  0.14209449  0.31991116  0.54196693     0.98240
C1260       C  0.13616885  0.41424329  0.52202840     0.98320
N1261       N  0.19558466  0.39524973  0.71106395    -0.06990
N1262       N  0.18224588  0.40405947  0.74661017    -0.62360
N1263       N  0.16116938  0.34580633  0.67535904    -0.06310
N1264       N  0.12768103  0.33124980  0.68065410    -0.59090
N1265       N  0.19216287  0.34259706  0.70379784    -0.07620
N1266       N  0.17974433  0.32553357  0.72919044    -0.61930
N1267       N  0.16394996  0.39770031  0.68276218    -0.06600
N1268       N  0.12824382  0.40767045  0.69984668    -0.59110
Mn1269     Mn  0.24822107  0.36836752  0.70801138     1.20190
Mn1270     Mn  0.16212519  0.37359230  0.62876509     1.10090
Cl1271     Cl  0.24630121  0.37191353  0.62818810    -0.87080
C1272       C  0.14031149  0.41174905  0.73957742     0.95250
C1273       C  0.13943577  0.31861823  0.71390268     0.95050
N1274       N  0.68296566  0.39275479  0.70911422    -0.07240
N1275       N  0.67025360  0.41015388  0.73363402    -0.59360
N1276       N  0.65930660  0.33873411  0.67760641    -0.06920
N1277       N  0.62993821  0.32195799  0.68250092    -0.61490
N1278       N  0.68833078  0.33889764  0.70809170    -0.06520
N1279       N  0.67879357  0.32211901  0.73488317    -0.59330
N1280       N  0.65474365  0.39107971  0.67819915    -0.06190
N1281       N  0.62313368  0.40668679  0.68063729    -0.61840
C1282       C  0.63257573  0.41867308  0.71488418     0.94940
C1283       C  0.64252779  0.31163888  0.71795646     0.94720
N1284       N  0.68762911  0.34018780  0.55187123    -0.07420
N1285       N  0.67663443  0.32425994  0.52416138    -0.59940
N1286       N  0.65475459  0.39288821  0.58302945    -0.05540
N1287       N  0.62516685  0.40984239  0.58073599    -0.61190
N1288       N  0.68394854  0.39415757  0.55241988    -0.07450
N1289       N  0.67411583  0.41218635  0.52822633    -0.60200
N1290       N  0.65879049  0.33984428  0.58266455    -0.05190
N1291       N  0.62827188  0.32380619  0.57740632    -0.61280
Mn1292     Mn  0.65663385  0.36557666  0.63040553     1.18440
C1293       C  0.63967187  0.31415136  0.54115409     0.97020
C1294       C  0.63740801  0.42191307  0.54674568     0.97680
N1295       N  0.79662700  0.34135811  0.70743776    -0.07470
N1296       N  0.80902398  0.32279549  0.72949094    -0.63780
N1297       N  0.82160543  0.39671295  0.68248632    -0.06280
N1298       N  0.85854745  0.40612514  0.69755526    -0.64460
N1299       N  0.79162670  0.39427989  0.71256950    -0.06980
N1300       N  0.80804031  0.40220074  0.74776002    -0.64050
N1301       N  0.82600325  0.34500470  0.67769350    -0.05880
N1302       N  0.85807439  0.32960489  0.67855599    -0.64740
Mn1303     Mn  0.73955081  0.36681952  0.71093168     1.10660
C1304       C  0.84778929  0.31567521  0.71041554     0.98240
C1305       C  0.84970379  0.40969593  0.73815603     0.98320
N1306       N  0.79198037  0.39456008  0.54912859    -0.06990
N1307       N  0.80831264  0.40218163  0.51360241    -0.62360
N1308       N  0.82556282  0.34431072  0.58367492    -0.06310
N1309       N  0.85731773  0.32852522  0.58085046    -0.59090
N1310       N  0.79620924  0.34208172  0.55363452    -0.07620
N1311       N  0.80854408  0.32476890  0.52894333    -0.61930
N1312       N  0.82238391  0.39655325  0.57857449    -0.06600
N1313       N  0.85967640  0.40542160  0.56268983    -0.59110
Mn1314     Mn  0.73967834  0.36772261  0.55046914     1.20190
Mn1315     Mn  0.82346971  0.37146487  0.63062215     1.10090
Cl1316     Cl  0.74000163  0.36819689  0.63062677    -0.87080
C1317       C  0.85033757  0.40912257  0.52229302     0.95250
C1318       C  0.84643878  0.31632463  0.54707049     0.95050
C1319       C  0.49279037  0.22761352  0.75536835    -0.00560
C1320       C  0.49648661  0.25069493  0.74486931    -0.00560
C1321       C  0.49187251  0.25520031  0.50206374    -0.00560
C1322       C  0.49309633  0.23182937  0.99248795    -0.00560
N1323       N  0.70487431  0.15309803  0.80349529    -0.07240
N1324       N  0.67003451  0.15917424  0.78072187    -0.59360
N1325       N  0.80922389  0.15852695  0.83380057    -0.06920
N1326       N  0.84275550  0.17272730  0.82833516    -0.61490
N1327       N  0.80659357  0.14352303  0.80357062    -0.06520
N1328       N  0.83870534  0.14763266  0.77583826    -0.59330
N1329       N  0.71000163  0.16787011  0.83378470    -0.06190
N1330       N  0.67965126  0.18432083  0.83234526    -0.61840
C1331       C  0.65513485  0.17894326  0.79900862     0.94940
C1332       C  0.86133524  0.16572365  0.79273355     0.94720
N1333       N  0.80531696  0.14526323  0.95910628    -0.07420
N1334       N  0.83165350  0.15304663  0.98921233    -0.59940
N1335       N  0.70987105  0.16844413  0.92910690    -0.05540
N1336       N  0.68211147  0.18603491  0.93246670    -0.61190
N1337       N  0.70389131  0.15365959  0.95951151    -0.07450
N1338       N  0.67126775  0.16088386  0.98432394    -0.60200
N1339       N  0.81004920  0.15860353  0.92645537    -0.05190
N1340       N  0.84006798  0.17466455  0.93245687    -0.61280
Mn1341     Mn  0.75963947  0.16331727  0.88072960     1.18440
C1342       C  0.85301798  0.17154062  0.97151749     0.97020
C1343       C  0.65852848  0.18138497  0.96714292     0.97680
N1344       N  0.78437389  0.08848583  0.80482759    -0.07470
N1345       N  0.81709212  0.08074223  0.78067656    -0.63780
N1346       N  0.67380468  0.08477468  0.82784973    -0.06280
N1347       N  0.64000080  0.07267016  0.81149574    -0.64460
N1348       N  0.68595767  0.10095045  0.80118189    -0.06980
N1349       N  0.66103635  0.10062080  0.76810382    -0.64050
N1350       N  0.77359328  0.07264720  0.83257446    -0.05880
N1351       N  0.79894050  0.05407890  0.82806019    -0.64740
Mn1352     Mn  0.74626457  0.12139000  0.80214994     1.10660
C1353       C  0.82567805  0.05909686  0.79543825     0.98240
C1354       C  0.63207781  0.08333653  0.77416626     0.98320
N1355       N  0.68479490  0.10069978  0.96148099    -0.06990
N1356       N  0.65712965  0.10029628  0.99320051    -0.62360
N1357       N  0.77549977  0.07374332  0.92854477    -0.06310
N1358       N  0.80581131  0.05702517  0.92954389    -0.59090
N1359       N  0.78504676  0.08972406  0.95632630    -0.07620
N1360       N  0.82158014  0.08389116  0.97702282    -0.61930
N1361       N  0.67405166  0.08477366  0.93400196    -0.06600
N1362       N  0.63889887  0.07272282  0.94796112    -0.59110
Mn1363     Mn  0.74522305  0.12201935  0.96051447     1.20190
Mn1364     Mn  0.72228789  0.07809052  0.88106013     1.10090
Cl1365     Cl  0.74313939  0.12100785  0.88115018    -0.87080
C1366       C  0.62872045  0.08291479  0.98492936     0.95250
C1367       C  0.83424983  0.06350093  0.95980046     0.95050
N1368       N  0.28777419  0.15001586  0.95517402    -0.07240
N1369       N  0.32189102  0.15537181  0.97922823    -0.59360
N1370       N  0.18436426  0.15850689  0.92419430    -0.06920
N1371       N  0.15228287  0.17381747  0.92836198    -0.61490
N1372       N  0.18510341  0.14389923  0.95528166    -0.06520
N1373       N  0.15327995  0.14956246  0.98249893    -0.59330
N1374       N  0.28518728  0.16457084  0.92398561    -0.06190
N1375       N  0.31683761  0.18034910  0.92605511    -0.61840
C1376       C  0.33919544  0.17439835  0.96058747     0.94940
C1377       C  0.13298675  0.16823160  0.96446269     0.94720
N1378       N  0.18499328  0.14145112  0.80140261    -0.07420
N1379       N  0.15501372  0.14765038  0.77308746    -0.59940
N1380       N  0.28265089  0.16375747  0.82723860    -0.05540
N1381       N  0.31070233  0.18096367  0.82151049    -0.61190
N1382       N  0.28650159  0.14834295  0.79764209    -0.07450
N1383       N  0.31840559  0.15457962  0.77123623    -0.60200
N1384       N  0.18332104  0.15603991  0.83236794    -0.05190
N1385       N  0.15214408  0.17156344  0.82711178    -0.61280
Mn1386     Mn  0.23436212  0.16076076  0.87696153     1.18440
C1387       C  0.13463126  0.16653667  0.79028086     0.97020
C1388       C  0.33259254  0.17515715  0.78654754     0.97680
N1389       N  0.20204615  0.08806923  0.95567994    -0.07470
N1390       N  0.16679954  0.08216137  0.97828205    -0.63780
N1391       N  0.31269416  0.08097400  0.93347839    -0.06280
N1392       N  0.34589325  0.06830719  0.94975955    -0.64460
N1393       N  0.30201676  0.09764598  0.95957493    -0.06980
N1394       N  0.32766005  0.09717390  0.99223310    -0.64050
N1395       N  0.21185462  0.07144463  0.92927155    -0.05880
N1396       N  0.18336477  0.05415249  0.93315067    -0.64740
Mn1397     Mn  0.24332082  0.11974844  0.95763658     1.10660
C1398       C  0.15555146  0.06088124  0.96393127     0.98240
C1399       C  0.35503498  0.07900219  0.98659866     0.98320
N1400       N  0.30211464  0.09492002  0.79894108    -0.06990
N1401       N  0.33009926  0.09362099  0.76750504    -0.62360
N1402       N  0.20979803  0.07046790  0.83453617    -0.06310
N1403       N  0.17819005  0.05443643  0.83509006    -0.59090
N1404       N  0.20124037  0.08607652  0.80568422    -0.07620
N1405       N  0.16421185  0.08061909  0.78553456    -0.61930
N1406       N  0.31227344  0.07959185  0.82786853    -0.06600
N1407       N  0.34762787  0.06717170  0.81556775    -0.59110
Mn1408     Mn  0.24324819  0.11740780  0.79941703     1.20190
Mn1409     Mn  0.26366315  0.07468579  0.88110905     1.10090
Cl1410     Cl  0.24654821  0.11800440  0.87876122    -0.87080
C1411       C  0.35814734  0.07634561  0.77780497     0.95250
C1412       C  0.15023099  0.06089563  0.80439056     0.95050
C1413       C  0.99523723  0.25274079  0.73411859    -0.00560
C1414       C  0.99659178  0.22934936  0.74130386    -0.00560
C1415       C  0.99776689  0.25740017  0.50594963    -0.00560
C1416       C  0.99519713  0.23355346  0.00646390    -0.00560
C1417       C  0.99512961  0.41330796  0.90054020    -0.00560
C1418       C  0.99458048  0.41653609  0.85816733    -0.00560
C1419       C  0.49247598  0.06574145  0.61071087    -0.00560
C1420       C  0.49652972  0.06281449  0.65324994    -0.00560
C1421       C  0.99129196  0.98619552  0.50883757    -0.00560
C1422       C  0.99267400  0.00978285  0.50197624    -0.00560
C1423       C  0.99082618  0.00781323  0.76414580    -0.00560
C1424       C  0.99311529  0.98414598  0.75779450    -0.00560
C1425       C  0.10457564  0.03890462  0.75431205    -0.10280
C1426       C  0.10892726  0.04822735  0.79384325     0.05920
C1427       C  0.07386394  0.04520324  0.82266845    -0.04040
C1428       C  0.03654977  0.03160757  0.81260117    -0.08490
C1429       C  0.03251018  0.02153193  0.77327589     0.05040
C1430       C  0.06662132  0.02605167  0.74360323    -0.03520
Br1431     Br  0.06145123  0.01840274  0.68661709    -0.03210
H1432       H  0.13060306  0.04195111  0.73139358     0.08950
H1433       H  0.01000518  0.02933219  0.83529096     0.06970
Br1434     Br  0.07307552  0.06159856  0.87402549    -0.03640
C1435       C  0.10384969  0.02785050  0.95248082    -0.10280
C1436       C  0.11533743  0.04739113  0.97622534     0.05920
C1437       C  0.08646304  0.05414098  0.00868781    -0.04040
C1438       C  0.04729146  0.04161893  0.01621553    -0.08490
C1439       C  0.03570842  0.02211543  0.99270373     0.05040
C1440       C  0.06383389  0.01581488  0.95936124    -0.03520
Br1441     Br  0.04702271  0.99328496  0.91864944    -0.03210
H1442       H  0.12473930  0.02264169  0.92659997     0.08950
H1443       H  0.02636699  0.04713340  0.54135722     0.06970
Br1444     Br  0.09763319  0.07990085  0.04476418    -0.03640
C1445       C  0.38598589  0.08595000  0.55659005    -0.10280
C1446       C  0.38660715  0.07209958  0.02060710     0.05920
C1447       C  0.41671556  0.05326786  0.01957372    -0.04040
C1448       C  0.44693446  0.04986504  0.55248396    -0.08490
C1449       C  0.44913835  0.06521895  0.58663152     0.05040
C1450       C  0.41641381  0.08295617  0.58888384    -0.03520
Br1451     Br  0.41193173  0.10560029  0.63208207    -0.03210
H1452       H  0.36247889  0.10021538  0.55937873     0.08950
H1453       H  0.47099127  0.03583902  0.55002074     0.06970
Br1454     Br  0.42014379  0.03241006  0.97364660    -0.03640
C1455       C  0.39263642  0.05155758  0.72240277    -0.10280
C1456       C  0.39618532  0.07013946  0.75043082     0.05920
C1457       C  0.43061794  0.08639981  0.74453666    -0.04040
C1458       C  0.46095312  0.08385475  0.71196656    -0.08490
C1459       C  0.45815657  0.06533698  0.68357868     0.05040
C1460       C  0.42338589  0.04898219  0.68925069    -0.03520
Br1461     Br  0.41678888  0.02286019  0.65335442    -0.03210
H1462       H  0.36503846  0.03946397  0.72548542     0.08950
H1463       H  0.48667412  0.09693910  0.70835492     0.06970
Br1464     Br  0.43651914  0.11325014  0.77918763    -0.03640
C1465       C  0.04396663  0.19507849  0.72549436    -0.10280
C1466       C  0.03844746  0.21599538  0.74765243     0.05920
C1467       C  0.06682083  0.22072821  0.78099129    -0.04040
C1468       C  0.10004858  0.20501787  0.79102672    -0.08490
C1469       C  0.10393173  0.18339286  0.77095699     0.05040
C1470       C  0.07631343  0.17869394  0.73699075    -0.03520
Br1471     Br  0.07825327  0.14987264  0.70765107    -0.03210
H1472       H  0.02133018  0.19101923  0.70043274     0.08950
H1473       H  0.12100255  0.20935128  0.81713158     0.06970
Br1474     Br  0.05736147  0.24566724  0.81934109    -0.03640
C1475       C  0.06720274  0.21299747  0.02506865    -0.10280
C1476       C  0.03452922  0.21888073  0.99553615     0.05920
C1477       C  0.03434482  0.20724499  0.95742789    -0.04040
C1478       C  0.06396312  0.18907839  0.95036207    -0.08490
C1479       C  0.09578065  0.18254457  0.98001241     0.05040
C1480       C  0.09777602  0.19483843  0.01754861    -0.03520
Br1481     Br  0.14255421  0.18819712  0.05823713    -0.03210
H1482       H  0.06770903  0.22183772  0.05455312     0.08950
H1483       H  0.06360327  0.18067702  0.92040945     0.06970
Br1484     Br  0.99582428  0.21637723  0.91286196    -0.03640
C1485       C  0.88952230  0.04980245  0.01207658    -0.10280
C1486       C  0.87523365  0.05040521  0.97098459     0.05920
C1487       C  0.90121983  0.03894025  0.94089725    -0.04040
C1488       C  0.93712546  0.02483202  0.95246983    -0.08490
C1489       C  0.95090619  0.02346748  0.99371156     0.05040
C1490       C  0.92800531  0.03734003  0.52348286    -0.03520
Br1491     Br  0.94807286  0.04280148  0.57884965    -0.03210
H1492       H  0.87134559  0.05962640  0.53527081     0.08950
H1493       H  0.95619323  0.01597791  0.92865488     0.06970
Br1494     Br  0.89551574  0.04583707  0.88363492    -0.03640
C1495       C  0.89801789  0.05415393  0.75782235    -0.10280
C1496       C  0.86404443  0.04429326  0.78220117     0.05920
C1497       C  0.87027244  0.02144849  0.79725330    -0.04040
C1498       C  0.91198815  0.01056714  0.79277830    -0.08490
C1499       C  0.94656504  0.02042048  0.76871097     0.05040
C1500       C  0.93838531  0.04241424  0.75028627    -0.03520
Br1501     Br  0.97955633  0.05804267  0.71411899    -0.03210
H1502       H  0.89366987  0.07142248  0.74513963     0.08950
H1503       H  0.91721052  0.99421703  0.80852568     0.06970
Br1504     Br  0.82420444  0.00396691  0.82512580    -0.03640
C1505       C  0.56452963  0.08466850  0.67376540    -0.10280
C1506       C  0.54106070  0.06375123  0.67513939     0.05920
C1507       C  0.55095323  0.04812017  0.70785350    -0.04040
C1508       C  0.58038299  0.05447215  0.73989888    -0.08490
C1509       C  0.60083167  0.07638238  0.74017420     0.05040
C1510       C  0.59317176  0.09131682  0.70557792    -0.03520
Br1511     Br  0.61585533  0.12245043  0.69972488    -0.03210
H1512       H  0.55657131  0.09731409  0.65033410     0.08950
H1513       H  0.58668631  0.04237531  0.76489040     0.06970
Br1514     Br  0.52349741  0.01815343  0.71095924    -0.03640
C1515       C  0.55634318  0.05129592  0.56553696    -0.10280
C1516       C  0.53231686  0.07007229  0.58279452     0.05920
C1517       C  0.53950771  0.09239771  0.56571561    -0.04040
C1518       C  0.56922246  0.09553539  0.53269403    -0.08490
C1519       C  0.59243417  0.07690093  0.01484591     0.05040
C1520       C  0.58608291  0.05455265  0.53179295    -0.03520
Br1521     Br  0.61842875  0.02830653  0.01101961    -0.03210
H1522       H  0.55076632  0.03394995  0.57740960     0.08950
H1523       H  0.57461531  0.11296037  0.02095927     0.05930
Br1524     Br  0.51060742  0.11986544  0.58585898    -0.03640
C1525       C  0.91262966  0.18359299  0.02127911    -0.10280
C1526       C  0.88055564  0.18948221  0.99169429     0.05920
C1527       C  0.88015218  0.21240518  0.97569658    -0.04040
C1528       C  0.91645629  0.22694969  0.98230539    -0.08490
C1529       C  0.95164552  0.22032290  0.00835819     0.05040
C1530       C  0.94718850  0.19918146  0.03083352    -0.03520
Br1531     Br  0.98640818  0.19049436  0.57508914    -0.03210
H1532       H  0.91211452  0.16654950  0.53551052     0.08950
H1533       H  0.91810672  0.24295793  0.96485942     0.06970
Br1534     Br  0.83173904  0.22519065  0.94350533    -0.03640
C1535       C  0.89710731  0.18811296  0.73530857    -0.10280
C1536       C  0.89890884  0.17880836  0.77538409     0.05920
C1537       C  0.93070959  0.18724735  0.80341999    -0.04040
C1538       C  0.95696569  0.20612120  0.79289091    -0.08490
C1539       C  0.95654015  0.21535671  0.75272150     0.05040
C1540       C  0.92686132  0.20583782  0.72337022    -0.03520
Br1541     Br  0.92681705  0.21548391  0.66678077    -0.03210
H1542       H  0.87221820  0.18193620  0.71369583     0.08950
H1543       H  0.98073143  0.21240323  0.81539836     0.06970
Br1544     Br  0.94083187  0.17273481  0.85625800    -0.03640
C1545       C  0.58532837  0.18581063  0.00406833    -0.10280
C1546       C  0.61977785  0.19560518  0.98007888     0.05920
C1547       C  0.61416326  0.21821995  0.96422655    -0.04040
C1548       C  0.57239101  0.22887138  0.96631576    -0.08490
C1549       C  0.53739900  0.21933079  0.99010996     0.05040
C1550       C  0.54486979  0.19775794  0.01031357    -0.03520
Br1551     Br  0.50209636  0.18400912  0.04772044    -0.03210
H1552       H  0.58953488  0.16871738  0.01752031     0.08950
H1553       H  0.56765914  0.24498716  0.94971014     0.06970
Br1554     Br  0.66296195  0.23661586  0.94315557    -0.03640
C1555       C  0.41231229  0.21955692  0.00720025    -0.10280
C1556       C  0.45195599  0.21746395  0.98334471     0.05920
C1557       C  0.45380264  0.19905401  0.95418718    -0.04040
C1558       C  0.41892198  0.18302554  0.95247375    -0.08490
C1559       C  0.37896193  0.18674924  0.97388360     0.05040
C1560       C  0.37540507  0.20528786  0.00115321    -0.03520
Br1561     Br  0.32052892  0.21192693  0.03025775    -0.03210
H1562       H  0.40878070  0.23189260  0.03135522     0.08950
H1563       H  0.42213821  0.16801992  0.93291871     0.06970
Br1564     Br  0.50038029  0.19521264  0.91319547    -0.03640
C1565       C  0.56171149  0.22324110  0.79792499    -0.10280
C1566       C  0.53298122  0.21394993  0.76819413     0.05920
C1567       C  0.54323000  0.19202713  0.75090004    -0.04040
C1568       C  0.58317530  0.18092310  0.76144112    -0.08490
C1569       C  0.61388380  0.19146097  0.78802364     0.05040
C1570       C  0.60315376  0.21320054  0.80561696    -0.03520
Br1571     Br  0.64445557  0.23198259  0.83606739    -0.03210
H1572       H  0.55317749  0.23932326  0.81331234     0.08950
H1573       H  0.59052658  0.16414550  0.74817259     0.06970
Br1574     Br  0.50665942  0.17691311  0.71041603    -0.03640
C1575       C  0.44334617  0.20369058  0.79913733    -0.10280
C1576       C  0.44913837  0.21541195  0.76143688     0.05920
C1577       C  0.41726335  0.21182411  0.72978993    -0.04040
C1578       C  0.37912906  0.19824549  0.73736448    -0.08490
C1579       C  0.37422102  0.18679582  0.77514779     0.05040
C1580       C  0.40766992  0.18866807  0.80505347    -0.03520
Br1581     Br  0.40834649  0.16855290  0.85188069    -0.03210
H1582       H  0.46823729  0.20511539  0.82327587     0.08950
H1583       H  0.35389044  0.19627106  0.71364042     0.06970
Br1584     Br  0.42670204  0.22168691  0.67451859    -0.03640
C1585       C  0.95466325  0.42770495  0.96309251    -0.10280
C1586       C  0.95417788  0.41292912  0.92825060     0.05920
C1587       C  0.91848358  0.39683004  0.92520422    -0.04040
C1588       C  0.88372373  0.39706524  0.95477306    -0.08490
C1589       C  0.88538897  0.41152174  0.48978437     0.05040
C1590       C  0.92230970  0.42630653  0.49438161    -0.03520
Br1591     Br  0.93155838  0.44435755  0.54335796    -0.03210
H1592       H  0.98154502  0.44002905  0.96713482     0.08950
H1593       H  0.85671415  0.38462172  0.95187778     0.06970
Br1594     Br  0.91742846  0.37186570  0.88610135    -0.03640
C1595       C  0.95514917  0.39742727  0.80011198    -0.10280
C1596       C  0.95335232  0.41423827  0.83159658     0.05920
C1597       C  0.91589716  0.42941109  0.83263123    -0.04040
C1598       C  0.88223366  0.42770642  0.80220204    -0.08490
C1599       C  0.88556503  0.41149044  0.76988105     0.05040
C1600       C  0.92209233  0.39586809  0.76983199    -0.03520
Br1601     Br  0.92805642  0.37102202  0.73064017    -0.03210
H1602       H  0.98300172  0.38531137  0.79891648     0.08950
H1603       H  0.85394548  0.43953287  0.80313057     0.06970
Br1604     Br  0.91055212  0.45400770  0.87209464    -0.03640
C1605       C  0.90497001  0.30405835  0.49714102    -0.10280
C1606       C  0.87727198  0.29846319  0.53070102     0.05920
C1607       C  0.88792601  0.27892529  0.55486163    -0.04040
C1608       C  0.92751839  0.26642652  0.54728680    -0.08490
C1609       C  0.95633703  0.27210550  0.51401138     0.05040
C1610       C  0.94361633  0.29097461  0.48822634    -0.03520
Br1611     Br  0.97565599  0.29995397  0.43956444    -0.03210
H1612       H  0.89747419  0.31928736  0.47866937     0.08950
H1613       H  0.93543176  0.25190854  0.56726452     0.06970
Br1614     Br  0.84808288  0.26828674  0.59762633    -0.03640
C1615       C  0.90440272  0.28849574  0.68502831    -0.10280
C1616       C  0.87716679  0.29522496  0.71860961     0.05920
C1617       C  0.88553543  0.28510784  0.75763636    -0.04040
C1618       C  0.92226415  0.26968713  0.76232430    -0.08490
C1619       C  0.95116561  0.26474774  0.72865414     0.05040
C1620       C  0.94127939  0.27419686  0.68993840    -0.03520
Br1621     Br  0.97965673  0.27013473  0.64301197    -0.03210
H1622       H  0.89939371  0.29591056  0.65462739     0.08950
H1623       H  0.93002964  0.26281408  0.79266043     0.06970
Br1624     Br  0.85132620  0.29348450  0.80561881    -0.03640
C1625       C  0.61475269  0.27172307  0.71622977    -0.10280
C1626       C  0.61539587  0.29309502  0.73655982     0.05920
C1627       C  0.58053716  0.29862202  0.76429640    -0.04040
C1628       C  0.54401487  0.28359261  0.76888956    -0.08490
C1629       C  0.54097186  0.26312670  0.74546054     0.05040
C1630       C  0.57809751  0.25675116  0.72021606    -0.03520
Br1631     Br  0.57783787  0.23064891  0.68379053    -0.03210
H1632       H  0.64077851  0.26773437  0.69377898     0.08950
H1633       H  0.51631091  0.28869673  0.78873700     0.06970
Br1634     Br  0.57825889  0.32800481  0.79188889    -0.03640
C1635       C  0.54432565  0.28754309  0.48352214    -0.10280
C1636       C  0.53400761  0.26877942  0.50992198     0.05920
C1637       C  0.56454802  0.26328388  0.54200122    -0.04040
C1638       C  0.60244593  0.27692664  0.54803147    -0.08490
C1639       C  0.61120737  0.29621765  0.52308409     0.05040
C1640       C  0.58253296  0.30120446  0.48987061    -0.03520
Br1641     Br  0.59180280  0.32775613  0.45506993    -0.03210
H1642       H  0.52231292  0.29180726  0.95810424     0.08950
H1643       H  0.62384509  0.27335142  0.57433793     0.06970
Br1644     Br  0.55729387  0.23830146  0.58035913    -0.03640
C1645       C  0.07723229  0.43348786  0.77280313    -0.10280
C1646       C  0.10734718  0.41482660  0.77366435     0.05920
C1647       C  0.10381389  0.39838867  0.80617483    -0.04040
C1648       C  0.06857908  0.39991231  0.83484438    -0.08490
C1649       C  0.03748398  0.41822774  0.83347179     0.05040
C1650       C  0.04329308  0.43559117  0.80283097    -0.03520
Br1651     Br  0.00576604  0.46259695  0.80030626    -0.03210
H1652       H  0.08002941  0.44645350  0.74861582     0.08950
H1653       H  0.06420474  0.38599394  0.85696358     0.06970
Br1654     Br  0.14368413  0.37227877  0.81173876    -0.03640
C1655       C  0.08268073  0.39348204  0.97745965    -0.10280
C1656       C  0.10249175  0.41459010  0.48854743     0.05920
C1657       C  0.09247288  0.43460639  0.46531706    -0.04040
C1658       C  0.06082574  0.43354671  0.93319567    -0.08490
C1659       C  0.03838287  0.41268828  0.92423281     0.05040
C1660       C  0.05101391  0.39238570  0.94576738    -0.03520
Br1661     Br  0.02580306  0.36265162  0.93337514    -0.03210
H1662       H  0.09163487  0.37772891  0.99389344     0.08950
H1663       H  0.05121340  0.44934843  0.91732213     0.06970
Br1664     Br  0.11884076  0.46391141  0.47845295    -0.03640
C1665       C  0.11429893  0.27774498  0.71366924    -0.10280
C1666       C  0.10971414  0.30009178  0.73015444     0.05920
C1667       C  0.06889865  0.30600408  0.74952237    -0.04040
C1668       C  0.03394106  0.28988840  0.75200448    -0.08490
C1669       C  0.03660401  0.26811977  0.73229945     0.05040
C1670       C  0.07742116  0.26256060  0.71150250    -0.03520
Br1671     Br  0.08284694  0.23808043  0.67142000    -0.03210
H1672       H  0.14474003  0.27340853  0.69687170     0.08950
H1673       H  0.00348337  0.29496903  0.76801535     0.06970
Br1674     Br  0.05725525  0.33668810  0.76957824    -0.03640
C1675       C  0.05569474  0.27279615  0.55202550    -0.10280
C1676       C  0.04245950  0.26911303  0.51144769     0.05920
C1677       C  0.07099906  0.27749900  0.47941004    -0.04040
C1678       C  0.10594058  0.29330085  0.48865626    -0.08490
C1679       C  0.11500374  0.29923519  0.52988317     0.05040
C1680       C  0.09180099  0.28705109  0.56122233    -0.03520
Br1681     Br  0.10808497  0.28901796  0.61771553    -0.03210
H1682       H  0.03747880  0.26450879  0.57687445     0.08950
H1683       H  0.12497754  0.30126821  0.46381056     0.06970
Br1684     Br  0.06663657  0.26672817  0.92382663    -0.03640
C1685       C  0.39610662  0.28682716  0.55461293    -0.10280
C1686       C  0.37954721  0.30118458  0.52334489     0.05920
C1687       C  0.39651031  0.29853253  0.48278896    -0.04040
C1688       C  0.43096581  0.28217170  0.47494202    -0.08490
C1689       C  0.44939562  0.26888923  0.50741231     0.05040
C1690       C  0.43112632  0.27155701  0.54722350    -0.03520
Br1691     Br  0.45019964  0.25331217  0.59256707    -0.03210
H1692       H  0.38329052  0.28839068  0.58594373     0.08950
H1693       H  0.44494386  0.28074855  0.44408952     0.06970
Br1694     Br  0.37759862  0.31851024  0.43877653    -0.03640
C1695       C  0.41920259  0.26747318  0.76130264    -0.10280
C1696       C  0.45666277  0.26557326  0.73440194     0.05920
C1697       C  0.45765035  0.27966731  0.69867638    -0.04040
C1698       C  0.42140479  0.29365778  0.68926107    -0.08490
C1699       C  0.38465640  0.29648767  0.71631998     0.05040
C1700       C  0.38359469  0.28301964  0.75283855    -0.03520
Br1701     Br  0.33608840  0.28569890  0.79269346    -0.03210
H1702       H  0.41850337  0.25762230  0.78984163     0.08950
H1703       H  0.42383226  0.30349953  0.66078058     0.06970
Br1704     Br  0.50821270  0.28299077  0.66179299    -0.03640
C1705       C  0.41537998  0.47766339  0.72761887    -0.10280
C1706       C  0.44783822  0.47147852  0.75720004     0.05920
C1707       C  0.43986457  0.45131360  0.78128744    -0.04040
C1708       C  0.40337011  0.43670672  0.77243152    -0.08490
C1709       C  0.37397744  0.44187926  0.73994903     0.05040
C1710       C  0.37911062  0.46309479  0.71882488    -0.03520
Br1711     Br  0.33925840  0.47197316  0.67510971    -0.03210
H1712       H  0.42022319  0.49279461  0.70842312     0.08950
H1713       H  0.39992143  0.42044603  0.78901248     0.06970
Br1714     Br  0.47810970  0.44245016  0.82608415    -0.03640
C1715       C  0.56942234  0.44445944  0.69861697    -0.10280
C1716       C  0.60218577  0.43789383  0.72763480     0.05920
C1717       C  0.60133947  0.44856686  0.76668316    -0.04040
C1718       C  0.56652808  0.46424872  0.77630175    -0.08490
C1719       C  0.53308044  0.47011168  0.74721525     0.05040
C1720       C  0.53639398  0.46061514  0.70750294    -0.03520
Br1721     Br  0.49694532  0.46864500  0.66323435    -0.03210
H1722       H  0.56847342  0.43664901  0.66828236     0.08950
H1723       H  0.56478664  0.47072928  0.80724551     0.06970
Br1724     Br  0.64441191  0.44152145  0.80870795    -0.03640
C1725       C  0.44228679  0.45479525  0.48663890    -0.10280
C1726       C  0.45514040  0.47238517  0.51425662     0.05920
C1727       C  0.42731597  0.47697624  0.54871979    -0.04040
C1728       C  0.38890485  0.46359925  0.55562191    -0.08490
C1729       C  0.37695500  0.44566058  0.52858781     0.05040
C1730       C  0.40345154  0.44166267  0.49328724    -0.03520
Br1731     Br  0.39050667  0.41708920  0.45534411    -0.03210
H1732       H  0.46200198  0.45127817  0.45942601     0.08950
H1733       H  0.36940574  0.46642997  0.58351761     0.06970
Br1734     Br  0.44059582  0.50072175  0.58810254    -0.03640
C1735       C  0.55768994  0.47267547  0.55186103    -0.10280
C1736       C  0.54006654  0.47363302  0.51168087     0.05920
C1737       C  0.56075701  0.45958262  0.48104033    -0.04040
C1738       C  0.59511788  0.44379244  0.49169901    -0.08490
C1739       C  0.61107260  0.44241508  0.53233675     0.05040
C1740       C  0.59445744  0.45846971  0.56139757    -0.03520
Br1741     Br  0.62358864  0.46280083  0.61342510    -0.03210
H1742       H  0.54286244  0.48314837  0.57610123     0.08950
H1743       H  0.60786853  0.43186560  0.46861899     0.06970
Br1744     Br  0.54290054  0.46024943  0.42456283    -0.03640
C1745       C  0.39895896  0.55589981  0.00264359    -0.10280
C1746       C  0.36431772  0.54525549  0.98037099     0.05920
C1747       C  0.36999441  0.52185352  0.96875627    -0.04040
C1748       C  0.41230143  0.51149670  0.97147157    -0.08490
C1749       C  0.44779514  0.52201316  0.99302316     0.05040
C1750       C  0.43959448  0.54424481  0.01042897    -0.03520
Br1751     Br  0.48186203  0.55982009  0.04526189    -0.03210
H1752       H  0.39483854  0.57353043  0.01350495     0.08950
H1753       H  0.41717520  0.49512693  0.95603252     0.06970
Br1754     Br  0.32181358  0.50284390  0.94859220    -0.03640
C1755       C  0.39526420  0.54923818  0.74731341    -0.10280
C1756       C  0.37566700  0.54820903  0.78686023     0.05920
C1757       C  0.39661649  0.53447529  0.81723427    -0.04040
C1758       C  0.43371501  0.52094010  0.80768208    -0.08490
C1759       C  0.45380492  0.52199055  0.76877206     0.05040
C1760       C  0.43441145  0.53646719  0.73820204    -0.03520
Br1761     Br  0.45743518  0.53812908  0.68289814    -0.03210
H1762       H  0.37988698  0.55970912  0.72337881     0.08950
H1763       H  0.44717903  0.50971014  0.83130130     0.06970
Br1764     Br  0.38038516  0.53533944  0.87384567    -0.03640
C1765       C  0.07011138  0.59158261  0.72458321    -0.10280
C1766       C  0.09078130  0.57255510  0.74382677     0.05920
C1767       C  0.08166005  0.55019155  0.72829784    -0.04040
C1768       C  0.05208163  0.54739928  0.69445632    -0.08490
C1769       C  0.03109844  0.56667307  0.67548283     0.05040
C1770       C  0.04097884  0.58894623  0.69130565    -0.03520
Br1771     Br  0.01816325  0.61711173  0.66773467    -0.03210
H1772       H  0.07750007  0.60900219  0.73508066     0.08950
H1773       H  0.04443837  0.53009339  0.68370431     0.06970
Br1774     Br  0.10983211  0.52322952  0.75124075    -0.03640
C1775       C  0.07488611  0.55047283  0.51494612    -0.10280
C1776       C  0.10436328  0.56916601  0.01981105     0.05920
C1777       C  0.10451468  0.58070307  0.05877742    -0.04040
C1778       C  0.07105445  0.57622024  0.58790835    -0.08490
C1779       C  0.03864140  0.55913196  0.58169869     0.05040
C1780       C  0.04323708  0.54498195  0.54595880    -0.03520
Br1781     Br  0.00591476  0.51844627  0.53701371    -0.03210
H1782       H  0.07553971  0.54051211  0.98662626     0.08950
H1783       H  0.06900871  0.58760563  0.61403076     0.06970
Br1784     Br  0.14810986  0.60328428  0.07638503    -0.03640
C1785       C  0.39073463  0.70562344  0.95807567    -0.10280
C1786       C  0.38272035  0.68521694  0.98117168     0.05920
C1787       C  0.40675205  0.68174036  0.01802662    -0.04040
C1788       C  0.43909222  0.69810164  0.02980198    -0.08490
C1789       C  0.44848180  0.71776150  0.00513258     0.05040
C1790       C  0.42349505  0.72142362  0.96894433    -0.03520
Br1791     Br  0.43487387  0.74594718  0.92979094    -0.03210
H1792       H  0.37269858  0.70914445  0.92976512     0.08950
H1793       H  0.45830561  0.69492004  0.55750968     0.06970
Br1794     Br  0.39937552  0.65467676  0.55196144    -0.03640
C1795       C  0.40399871  0.68280544  0.73358739    -0.10280
C1796       C  0.37624205  0.68761457  0.76752697     0.05920
C1797       C  0.38054106  0.70934101  0.78769496    -0.04040
C1798       C  0.41768004  0.72296260  0.78005835    -0.08490
C1799       C  0.44725220  0.71789331  0.74765756     0.05040
C1800       C  0.43844478  0.69826595  0.72261179    -0.03520
Br1801     Br  0.47415577  0.69093260  0.67505779    -0.03210
H1802       H  0.40020273  0.66671342  0.71678693     0.08950
H1803       H  0.42396422  0.73731989  0.80067771     0.06970
Br1804     Br  0.33781476  0.72238553  0.82629376    -0.03640
C1805       C  0.55981442  0.53247805  0.73681439    -0.10280
C1806       C  0.53892329  0.51986616  0.76882762     0.05920
C1807       C  0.55805555  0.52068823  0.80858368    -0.04040
C1808       C  0.59628857  0.53392301  0.81588411    -0.08490
C1809       C  0.61629867  0.54719735  0.78446545     0.05040
C1810       C  0.59776685  0.54633144  0.74437898    -0.03520
Br1811     Br  0.62336470  0.56297887  0.69860796    -0.03210
H1812       H  0.54670724  0.53166176  0.70581205     0.08950
H1813       H  0.60983426  0.53423286  0.84691538     0.06970
Br1814     Br  0.53382690  0.50436106  0.85487532    -0.03640
C1815       C  0.57746272  0.55085787  0.94320740    -0.10280
C1816       C  0.61328398  0.55014899  0.97082868     0.05920
C1817       C  0.60895497  0.53761441  0.00783034    -0.04040
C1818       C  0.56971481  0.52500373  0.01568723    -0.08490
C1819       C  0.53436400  0.52428848  0.98688524     0.05040
C1820       C  0.53770179  0.53886870  0.95150653    -0.03520
Br1821     Br  0.48900739  0.54548898  0.91475507    -0.03210
H1822       H  0.58003644  0.56135560  0.91542866     0.08950
H1823       H  0.56624102  0.51667722  0.54531958     0.06970
Br1824     Br  0.65587329  0.53707394  0.54817777    -0.03640
C1825       C  0.88684231  0.55552005  0.53828485    -0.10280
C1826       C  0.89331683  0.57387355  0.00994169     0.05920
C1827       C  0.93096649  0.58821518  0.01478997    -0.04040
C1828       C  0.96182248  0.58379448  0.54629756    -0.08490
C1829       C  0.95595726  0.56548312  0.57500887     0.05040
C1830       C  0.91768298  0.55122682  0.57058643    -0.03520
Br1831     Br  0.90702787  0.52514781  0.60614313    -0.03210
H1832       H  0.85721504  0.54476614  0.53579774     0.08950
H1833       H  0.99068423  0.59510557  0.54879628     0.06970
Br1834     Br  0.94123889  0.61457600  0.97954105    -0.03640
C1835       C  0.88886637  0.58757978  0.70304136    -0.10280
C1836       C  0.88733884  0.57323051  0.73850324     0.05920
C1837       C  0.91419067  0.55315148  0.73868784    -0.04040
C1838       C  0.94344402  0.54884938  0.70523917    -0.08490
C1839       C  0.94794002  0.56451980  0.67156889     0.05040
C1840       C  0.91828902  0.58364631  0.67020064    -0.03520
Br1841     Br  0.91626079  0.60669493  0.62728091    -0.03210
H1842       H  0.86775688  0.60284073  0.70093622     0.08950
H1843       H  0.96503385  0.53375975  0.70685818     0.06970
Br1844     Br  0.91419724  0.53157849  0.78389136    -0.03640
C1845       C  0.60280100  0.69687026  0.73440974    -0.10280
C1846       C  0.59515992  0.67910897  0.76336616     0.05920
C1847       C  0.55420826  0.67812436  0.78424514    -0.04040
C1848       C  0.52421202  0.69640277  0.78079324    -0.08490
C1849       C  0.53066621  0.71457857  0.75185268     0.05040
C1850       C  0.56994250  0.71391938  0.72687320    -0.03520
Br1851     Br  0.58064968  0.73439594  0.68123765    -0.03210
H1852       H  0.63469861  0.69771165  0.71822223     0.08950
H1853       H  0.49445682  0.69577812  0.80013819     0.06970
Br1854     Br  0.53834199  0.65199037  0.81837327    -0.03640
C1855       C  0.58458211  0.68730035  0.01728554    -0.10280
C1856       C  0.59139698  0.68412404  0.97469958     0.05920
C1857       C  0.56760624  0.69851086  0.94663323    -0.04040
C1858       C  0.53919208  0.71562734  0.96106684    -0.08490
C1859       C  0.53096478  0.71834459  0.00308367     0.05040
C1860       C  0.55409790  0.70418695  0.03153100    -0.03520
Br1861     Br  0.54548825  0.70753702  0.58955762    -0.03210
H1862       H  0.60329016  0.67698828  0.03934311     0.08950
H1863       H  0.52113154  0.72609217  0.93887216     0.06970
Br1864     Br  0.56905173  0.69573770  0.88754496    -0.03640
C1865       C  0.93661190  0.71587639  0.95298050    -0.10280
C1866       C  0.95067638  0.71671503  0.99393126     0.05920
C1867       C  0.92808916  0.70326325  0.02414822    -0.04040
C1868       C  0.89041500  0.69022121  0.01295255    -0.08490
C1869       C  0.87596120  0.68992947  0.97176689     0.05040
C1870       C  0.90074289  0.70214670  0.94158995    -0.03520
Br1871     Br  0.89047652  0.69923745  0.88366563    -0.03210
H1872       H  0.95383498  0.72572081  0.92941272     0.08950
H1873       H  0.87193003  0.68077342  0.03648158     0.06970
Br1874     Br  0.94442252  0.70401457  0.58148293    -0.03640
C1875       C  0.04993531  0.70190836  0.02275847    -0.10280
C1876       C  0.03350121  0.71843348  0.99467189     0.05920
C1877       C  0.05347431  0.72007750  0.95507585    -0.04040
C1878       C  0.08980382  0.70601326  0.94500338    -0.08490
C1879       C  0.10677268  0.68956259  0.97304747     0.05040
C1880       C  0.08611985  0.68742120  0.01233677    -0.03520
Br1881     Br  0.10487233  0.66532755  0.05326076    -0.03210
H1882       H  0.03440535  0.70007037  0.05283670     0.08950
H1883       H  0.10496848  0.70818577  0.91472797     0.06970
Br1884     Br  0.03751565  0.74376321  0.91549333    -0.03640
C1885       C  0.38565084  0.89492115  0.95355304    -0.10280
C1886       C  0.38374702  0.91023137  0.48738327     0.05920
C1887       C  0.41590138  0.92796380  0.48956966    -0.04040
C1888       C  0.44936305  0.92988561  0.95904864    -0.08490
C1889       C  0.45314490  0.91393048  0.92608882     0.05040
C1890       C  0.42017885  0.89624961  0.92360956    -0.03520
Br1891     Br  0.42239216  0.87165307  0.88382651    -0.03210
H1892       H  0.36158631  0.88089600  0.95171895     0.08950
H1893       H  0.47381583  0.94363770  0.96200790     0.06970
Br1894     Br  0.41572216  0.95001691  0.53382628    -0.03640
C1895       C  0.39184900  0.93051918  0.79693478    -0.10280
C1896       C  0.39506472  0.91354198  0.76593426     0.05920
C1897       C  0.42979231  0.89694072  0.76823980    -0.04040
C1898       C  0.46136322  0.89823674  0.79973596    -0.08490
C1899       C  0.45948871  0.91562642  0.83014589     0.05040
C1900       C  0.42388957  0.93186530  0.82867324    -0.03520
Br1901     Br  0.41853991  0.95701726  0.86701720    -0.03210
H1902       H  0.36455138  0.94295799  0.79616392     0.08950
H1903       H  0.48774083  0.88528498  0.80061432     0.06970
Br1904     Br  0.43456059  0.87085405  0.73149929    -0.03640
C1905       C  0.09067862  0.95524139  0.70341267    -0.10280
C1906       C  0.11757695  0.94696738  0.73571866     0.05920
C1907       C  0.10697306  0.95408169  0.77635959    -0.04040
C1908       C  0.06823673  0.96794509  0.78334784    -0.08490
C1909       C  0.03756229  0.97239051  0.75093555     0.05040
C1910       C  0.04918187  0.96492731  0.71105806    -0.03520
Br1911     Br  0.00945249  0.96501098  0.66517472    -0.03210
H1912       H  0.09862316  0.95102819  0.67153712     0.08950
H1913       H  0.06023450  0.97359569  0.81442254     0.06970
Br1914     Br  0.14163518  0.94405402  0.82274495    -0.03640
C1915       C  0.09982468  0.96110380  0.55574431    -0.10280
C1916       C  0.10682862  0.94106439  0.53208717     0.05920
C1917       C  0.07761389  0.93673913  0.49895142    -0.04040
C1918       C  0.04129274  0.95180049  0.49122408    -0.08490
C1919       C  0.03331853  0.97170681  0.51562626     0.05040
C1920       C  0.06404388  0.97631246  0.54779707    -0.03520
Br1921     Br  0.05704232  0.00151954  0.58529918    -0.03210
H1922       H  0.12105903  0.96430852  0.58223332     0.08950
H1923       H  0.01892390  0.94760392  0.46619268     0.06970
Br1924     Br  0.08320128  0.90926727  0.46606577    -0.03640
C1925       C  0.40943282  0.76063445  0.54328044    -0.10280
C1926       C  0.44681730  0.76913962  0.52083356     0.05920
C1927       C  0.44197040  0.79099059  0.50078995    -0.04040
C1928       C  0.40311069  0.80432000  0.50680240    -0.08490
C1929       C  0.36700400  0.79592735  0.53017872     0.05040
C1930       C  0.36929187  0.77329811  0.54597568    -0.03520
Br1931     Br  0.31745834  0.75896453  0.57002534    -0.03210
H1932       H  0.41123480  0.74419005  0.55932977     0.08950
H1933       H  0.40175294  0.82179792  0.49440312     0.06970
Br1934     Br  0.48518658  0.80377594  0.96307816    -0.03640
C1935       C  0.40298430  0.80121645  0.77160742    -0.10280
C1936       C  0.37294807  0.79761602  0.73905254     0.05920
C1937       C  0.37881512  0.77817613  0.71360714    -0.04040
C1938       C  0.41695922  0.76429469  0.71726690    -0.08490
C1939       C  0.44843159  0.76818097  0.74877148     0.05040
C1940       C  0.44005773  0.78640222  0.77712269    -0.03520
Br1941     Br  0.47916670  0.79242840  0.82272761    -0.03210
H1942       H  0.39925799  0.81634492  0.79112120     0.08950
H1943       H  0.42261554  0.75079473  0.69461916     0.06970
Br1944     Br  0.33575154  0.77064146  0.67228605    -0.03640
C1945       C  0.07031226  0.76725280  0.50988806    -0.10280
C1946       C  0.02673869  0.76811046  0.52758065     0.05920
C1947       C  0.01953986  0.78420756  0.55992467    -0.04040
C1948       C  0.05368939  0.79928947  0.57130449    -0.08490
C1949       C  0.09605398  0.79896270  0.55181587     0.05040
C1950       C  0.10469172  0.78214527  0.52181330    -0.03520
Br1951     Br  0.16259110  0.77813984  0.49633643    -0.03210
H1952       H  0.07887296  0.75591552  0.48542454     0.08950
H1953       H  0.04638086  0.81168573  0.59552780     0.06970
Br1954     Br  0.96456026  0.78694970  0.59125570    -0.03640
C1955       C  0.07144253  0.77134104  0.77811156    -0.10280
C1956       C  0.04644195  0.76385414  0.74376946     0.05920
C1957       C  0.06352597  0.76815987  0.70395249    -0.04040
C1958       C  0.10061478  0.78254270  0.69875952    -0.08490
C1959       C  0.12061364  0.79365561  0.73265379     0.05040
C1960       C  0.10769646  0.78680877  0.77285047    -0.03520
Br1961     Br  0.13388321  0.80041349  0.82094563    -0.03210
H1962       H  0.05993905  0.76712134  0.80905176     0.08950
H1963       H  0.11117105  0.78681585  0.66751808     0.06970
Br1964     Br  0.03623001  0.75574451  0.65533547    -0.03640
C1965       C  0.94194972  0.69924044  0.73753846    -0.10280
C1966       C  0.94901489  0.71975469  0.76012570     0.05920
C1967       C  0.91428405  0.72795023  0.78610933    -0.04040
C1968       C  0.87389623  0.71595743  0.78828455    -0.08490
C1969       C  0.86883128  0.69409722  0.76979582     0.05040
C1970       C  0.90283644  0.68608098  0.74284147    -0.03520
Br1971     Br  0.90012414  0.65687422  0.71468524    -0.03210
H1972       H  0.96811610  0.69275927  0.71721948     0.08950
H1973       H  0.84800090  0.72269062  0.80863524     0.06970
Br1974     Br  0.92180341  0.75223596  0.82605942    -0.03640
C1975       C  0.06268472  0.70996303  0.73167955    -0.10280
C1976       C  0.03320254  0.71508572  0.76455260     0.05920
C1977       C  0.03945309  0.70381774  0.80271603    -0.04040
C1978       C  0.07712259  0.69019109  0.80906907    -0.08490
C1979       C  0.10802478  0.68643513  0.77722012     0.05040
C1980       C  0.10009151  0.69566746  0.73775173    -0.03520
Br1981     Br  0.14029967  0.69028053  0.69231558    -0.03210
H1982       H  0.05655421  0.71687717  0.70127527     0.08950
H1983       H  0.08244676  0.68247936  0.83928919     0.06970
Br1984     Br  0.99770060  0.70532683  0.84721393    -0.03640
C1985       C  0.58696013  0.93357930  0.77721339    -0.10280
C1986       C  0.61180364  0.91298659  0.77413683     0.05920
C1987       C  0.60338773  0.89512449  0.80334804    -0.04040
C1988       C  0.56973917  0.89779088  0.83365478    -0.08490
C1989       C  0.54338697  0.91801283  0.83563226     0.05040
C1990       C  0.55344408  0.93625391  0.80765732    -0.03520
Br1991     Br  0.52170559  0.96515947  0.80910775    -0.03210
H1992       H  0.59320845  0.94755380  0.75548448     0.08950
H1993       H  0.56173865  0.88325624  0.85364133     0.06970
Br1994     Br  0.63287979  0.86551671  0.80036574    -0.03640
C1995       C  0.56138348  0.93483306  0.93412680    -0.10280
C1996       C  0.53772354  0.91414235  0.92676113     0.05920
C1997       C  0.54876879  0.89423942  0.95006041    -0.04040
C1998       C  0.58051590  0.89554589  0.48152802    -0.08490
C1999       C  0.60267852  0.91636870  0.49015342     0.05040
C2000       C  0.59407609  0.93594627  0.96532296    -0.03520
Br2001     Br  0.62529310  0.96448665  0.47387599    -0.03210
H2002       H  0.55315130  0.95032855  0.91670233     0.08950
H2003       H  0.58848255  0.88003959  0.49910832     0.06970
Br2004     Br  0.52258556  0.86455334  0.93970240    -0.03640
C2005       C  0.93164816  0.96084360  0.47639119    -0.10280
C2006       C  0.94711366  0.97365087  0.51061150     0.05920
C2007       C  0.92230024  0.97239032  0.54765361    -0.04040
C2008       C  0.88560724  0.95767465  0.55115660    -0.08490
C2009       C  0.87373497  0.94273370  0.51915890     0.05040
C2010       C  0.89579665  0.94500091  0.48071079    -0.03520
Br2011     Br  0.88176284  0.92510041  0.93532458    -0.03210
H2012       H  0.94920412  0.96203586  0.94707720     0.08950
H2013       H  0.86902895  0.95606681  0.58088743     0.06970
Br2014     Br  0.93933947  0.98761116  0.59688992    -0.03640
C2015       C  0.91054099  0.93308176  0.76135266    -0.10280
C2016       C  0.88231936  0.93821257  0.72802837     0.05920
C2017       C  0.88647372  0.95992065  0.70834290    -0.04040
C2018       C  0.92097099  0.97520059  0.71953023    -0.08490
C2019       C  0.95197670  0.96929517  0.75067659     0.05040
C2020       C  0.94473083  0.94845230  0.77304118    -0.03520
Br2021     Br  0.97930417  0.94031216  0.82076999    -0.03210
H2022       H  0.90719789  0.91662201  0.77731063     0.08950
H2023       H  0.92483325  0.99128826  0.70251310     0.06970
Br2024     Br  0.84534864  0.96929445  0.66608309    -0.03640
C2025       C  0.60778940  0.78603030  0.75353763    -0.10280
C2026       C  0.60112652  0.80282525  0.72228059     0.05920
C2027       C  0.55840738  0.80355115  0.70283395    -0.04040
C2028       C  0.52702573  0.78655745  0.71075416    -0.08490
C2029       C  0.53282239  0.76959905  0.74123529     0.05040
C2030       C  0.57331871  0.77003485  0.76426632    -0.03520
Br2031     Br  0.58194190  0.75101800  0.81225079    -0.03210
H2032       H  0.63921221  0.78566423  0.77020647     0.08950
H2033       H  0.49593808  0.78748281  0.69369522     0.06970
Br2034     Br  0.53552745  0.82799351  0.66748363    -0.03640
C2035       C  0.56485707  0.77191943  0.49414603    -0.10280
C2036       C  0.53343331  0.76738679  0.52603171     0.05920
C2037       C  0.54197903  0.77607785  0.56555737    -0.04040
C2038       C  0.57849195  0.79069868  0.57204613    -0.08490
C2039       C  0.60679991  0.79790004  0.53927962     0.05040
C2040       C  0.60085795  0.78747192  0.50023021    -0.03520
Br2041     Br  0.63767398  0.79533676  0.45353754    -0.03210
H2042       H  0.55922908  0.76494264  0.46358164     0.08950
H2043       H  0.58323765  0.79744075  0.60290861     0.06970
Br2044     Br  0.50323285  0.76898776  0.61138981    -0.03640
C2045       C  0.90412643  0.76014962  0.52291154    -0.10280
C2046       C  0.94438929  0.76725738  0.50344205     0.05920
C2047       C  0.94406076  0.78869174  0.48181604    -0.04040
C2048       C  0.90677942  0.80347529  0.48478013    -0.08490
C2049       C  0.86865336  0.79697147  0.50747147     0.05040
C2050       C  0.86620710  0.77446725  0.52368014    -0.03520
Br2051     Br  0.81311833  0.76387211  0.55161164    -0.03210
H2052       H  0.90293228  0.74462305  0.54132503     0.08950
H2053       H  0.90910852  0.82090230  0.47231266     0.06970
Br2054     Br  0.99466862  0.79990048  0.95070657    -0.03640
C2055       C  0.93138089  0.76184535  0.70703986    -0.10280
C2056       C  0.96131250  0.76923792  0.73781982     0.05920
C2057       C  0.95212980  0.79051760  0.75826205    -0.04040
C2058       C  0.91334176  0.80313760  0.74869266    -0.08490
C2059       C  0.88354231  0.79538278  0.71854818     0.05040
C2060       C  0.89281745  0.77458660  0.69766371    -0.03520
Br2061     Br  0.85371677  0.76303073  0.65579527    -0.03210
H2062       H  0.93797198  0.74598653  0.69018140     0.08950
H2063       H  0.90738109  0.81966063  0.76367276     0.06970
Br2064     Br  0.98853247  0.80314027  0.80137939    -0.03640
loop_ 
_geom_bond_atom_site_label_1 
_geom_bond_atom_site_label_2 
_geom_bond_distance 
_geom_bond_site_symmetry_2 
_ccdc_geom_bond_type 
N1            N2   1.327       .  A
N1            N7   1.314       .  A
N1          Mn30   2.230       .  S
N2            C9   1.361       .  A
N3            N5   1.318       .  A
N3            N4   1.319       .  A
N3          Mn19   2.201       .  S
N4           C10   1.349       .  A
N5            N6   1.328       .  A
N5          Mn30   2.245       .  S
N6           C10   1.360       .  A
N7            N8   1.312       .  A
N7          Mn19   2.157       .  S
N8            C9   1.341       .  A
C9         C1027   1.466       .  S
C10         C984   1.483       .  S
N11          N17   1.315       .  A
N11          N12   1.331       .  A
N11         Mn41   2.244       .  S
N12          C20   1.362       .  A
N13          N14   1.313       .  A
N13          N15   1.314       .  A
N13         Mn19   2.175       .  S
N14          C21   1.345       .  A
N15          N16   1.327       .  A
N15         Mn41   2.215       .  S
N16          C21   1.358       .  A
N17          N18   1.311       .  A
N17         Mn19   2.167       .  S
N18          C20   1.345       .  A
Mn19        Cl43   2.500       .  S
C20         C977   1.478       .  S
C21        C1017   1.467       .  S
N22          N23   1.322       .  A
N22          N28   1.324       .  A
N22         Mn30   2.214       .  S
N23          C31   1.347       .  A
N24          N26   1.314       .  A
N24          N25   1.301       .  A
N24         Mn42   2.159       .  S
N25          C32   1.333       .  A
N26          N27   1.339       .  A
N26         Mn30   2.255       .  S
N27          C32   1.372       .  A
N28          N29   1.329       .  A
N28         Mn42   2.238       .  S
N29          C31   1.357       .  A
Mn30        Cl43   2.596       .  S
C31         C954   1.493       .  S
C32         C994   1.498       .  S
N33          N34   1.336       .  A
N33          N39   1.314       .  A
N33         Mn41   2.256       .  S
N34          C44   1.370       .  A
N35          N36   1.325       .  A
N35          N37   1.322       .  A
N35         Mn42   2.224       .  S
N36          C45   1.357       .  A
N37          N38   1.319       .  A
N37         Mn41   2.205       .  S
N38          C45   1.346       .  A
N39          N40   1.309       .  A
N39         Mn42   2.168       .  S
N40          C44   1.341       .  A
Mn41        Cl43   2.589       .  S
Mn42        Cl43   2.497       .  S
C44        C1007   1.499       .  S
C45         C967   1.476   1_554  S
C46          C47   1.371   1_455  D
C46         C924   1.497       .  S
C46        C1024   1.504   1_455  S
C47         C934   1.496       .  S
C47         C944   1.487   1_655  S
N48          N49   1.328       .  A
N48          N54   1.310       .  A
N48         Mn77   2.228       .  S
N49          C56   1.365       .  A
N50          N52   1.317       .  A
N50          N51   1.315       .  A
N50         Mn66   2.175       .  S
N51          C57   1.344       .  A
N52          N53   1.332       .  A
N52         Mn77   2.264       .  S
N53          C57   1.365       .  A
N54          N55   1.305       .  A
N54         Mn66   2.120       .  S
N55          C56   1.337       .  A
C56         C917   1.474       .  S
C57         C884   1.486       .  S
N58          N64   1.311       .  A
N58          N59   1.338       .  A
N58         Mn88   2.253       .  S
N59          C67   1.369       .  A
N60          N61   1.308       .  A
N60          N62   1.312       .  A
N60         Mn66   2.150       .  S
N61          C68   1.341       .  A
N62          N63   1.334       .  A
N62         Mn88   2.244       .  S
N63          C68   1.366       .  A
N64          N65   1.299       .  A
N64         Mn66   2.122       .  S
N65          C67   1.339       .  A
Mn66        Cl90   2.479       .  S
C67         C874   1.489       .  S
C68         C927   1.484       .  S
N69          N70   1.324       .  A
N69          N75   1.324       .  A
N69         Mn77   2.216       .  S
N70          C78   1.351       .  A
N71          N73   1.318       .  A
N71          N72   1.313       .  A
N71         Mn89   2.184       .  S
N72          C79   1.343       .  A
N73          N74   1.330       .  A
N73         Mn77   2.238       .  S
N74          C79   1.361       .  A
N75          N76   1.327       .  A
N75         Mn89   2.242       .  S
N76          C78   1.357       .  A
Mn77        Cl90   2.600       .  S
C78         C854   1.495   1_554  S
C79         C897   1.472       .  S
N80          N81   1.329       .  A
N80          N86   1.317       .  A
N80         Mn88   2.225       .  S
N81          C91   1.359       .  A
N82          N83   1.323       .  A
N82          N84   1.325       .  A
N82         Mn89   2.230       .  S
N83          C92   1.355       .  A
N84          N85   1.320       .  A
N84         Mn88   2.203       .  S
N85          C92   1.346       .  A
N86          N87   1.313       .  A
N86         Mn89   2.184       .  S
N87          C91   1.344       .  A
Mn88        Cl90   2.601       .  S
Mn89        Cl90   2.496       .  S
C91         C904   1.472       .  S
C92         C864   1.479       .  S
C93        C1126   1.375       .  D
C93         C914   1.515   1_655  S
C93        C1014   1.515       .  S
C94        C1125   1.375       .  D
C94         C834   1.479       .  S
C94         C844   1.484   1_655  S
N95          N96   1.324       .  A
N95         N101   1.313       .  A
N95        Mn124   2.194       .  S
N96         C103   1.355       .  A
N97          N99   1.312       .  A
N97          N98   1.301       .  A
N97        Mn113   2.120       .  S
N98         C104   1.333       .  A
N99         N100   1.333       .  A
N99        Mn124   2.243       .  S
N100        C104   1.367       .  A
N101        N102   1.309       .  A
N101       Mn113   2.170       .  S
N102        C103   1.346       .  A
C103        C837   1.470       .  S
C104        C824   1.476       .  S
N105        N111   1.312       .  A
N105        N106   1.326       .  A
N105       Mn135   2.196       .  S
N106        C114   1.356       .  A
N107        N108   1.311       .  A
N107        N109   1.310       .  A
N107       Mn113   2.159       .  S
N108        C115   1.349       .  A
N109        N110   1.325       .  A
N109       Mn135   2.212       .  S
N110        C115   1.358       .  A
N111        N112   1.311       .  A
N111       Mn113   2.163       .  S
N112        C114   1.343       .  A
Mn113      Cl137   2.520       .  S
C114        C814   1.457       .  S
C115        C937   1.483       .  S
N116        N117   1.322       .  A
N116        N122   1.320       .  A
N116       Mn124   2.203       .  S
N117        C125   1.353       .  A
N118        N120   1.322       .  A
N118        N119   1.332       .  A
N118       Mn136   2.264       .  S
N119        C126   1.364       .  A
N120        N121   1.318       .  A
N120       Mn124   2.200       .  S
N121        C126   1.344       .  A
N122        N123   1.319       .  A
N122       Mn136   2.216       .  S
N123        C125   1.349       .  A
Mn124      Cl137   2.565       .  S
C125        C784   1.466       .  S
C126        C794   1.488       .  S
N127        N128   1.304       .  A
N127        N133   1.318       .  A
N127       Mn135   2.150       .  S
N128        C138   1.336       .  A
N129        N130   1.317       .  A
N129        N131   1.318       .  A
N129       Mn136   2.213       .  S
N130        C139   1.351       .  A
N131        N132   1.326       .  A
N131       Mn135   2.218       .  S
N132        C139   1.357       .  A
N133        N134   1.336       .  A
N133       Mn136   2.265       .  S
N134        C138   1.371       .  A
Mn135      Cl137   2.554       .  S
Mn136      Cl137   2.547       .  S
C138        C804   1.496       .  S
C139        C777   1.487       .  S
N140        N141   1.322       .  A
N140        N146   1.311       .  A
N140       Mn169   2.189       .  S
N141        C148   1.354       .  A
N142        N144   1.310       .  A
N142        N143   1.299       .  A
N142       Mn158   2.123       .  S
N143        C149   1.331       .  A
N144        N145   1.333       .  A
N144       Mn169   2.225       .  S
N145        C149   1.366       .  A
N146        N147   1.311       .  A
N146       Mn158   2.160       .  S
N147        C148   1.346       .  A
C148        C947   1.454       .  S
C149        C764   1.474       .  S
N150        N156   1.308       .  A
N150        N151   1.332       .  A
N150       Mn180   2.223       .  S
N151        C159   1.366       .  A
N152        N153   1.313       .  A
N152        N154   1.309       .  A
N152       Mn158   2.162       .  S
N153        C160   1.350       .  A
N154        N155   1.324       .  A
N154       Mn180   2.206       .  S
N155        C160   1.358       .  A
N156        N157   1.303       .  A
N156       Mn158   2.127       .  S
N157        C159   1.338       .  A
Mn158      Cl182   2.478       .  S
C159        C754   1.484       .  S
C160        C847   1.482       .  S
N161        N162   1.325       .  A
N161        N167   1.320       .  A
N161       Mn169   2.202       .  S
N162        C170   1.355       .  A
N163        N165   1.321       .  A
N163        N164   1.337       .  A
N163       Mn181   2.278       .  S
N164        C171   1.369       .  A
N165        N166   1.311       .  A
N165       Mn169   2.179       .  S
N166        C171   1.341       .  A
N167        N168   1.315       .  A
N167       Mn181   2.223       .  S
N168        C170   1.351       .  A
Mn169      Cl182   2.575       .  S
C170        C724   1.484       .  S
C171        C734   1.495       .  S
N172        N173   1.304       .  A
N172        N178   1.319       .  A
N172       Mn180   2.156       .  S
N173        C183   1.332       .  A
N174        N175   1.318       .  A
N174        N176   1.319       .  A
N174       Mn181   2.228       .  S
N175        C184   1.353       .  A
N176        N177   1.325       .  A
N176       Mn180   2.214       .  S
N177        C184   1.357       .  A
N178        N179   1.337       .  A
N178       Mn181   2.269       .  S
N179        C183   1.371       .  A
Mn180      Cl182   2.560       .  S
Mn181      Cl182   2.551       .  S
C183        C744   1.495       .  S
C184        C714   1.492       .  S
C185        C186   1.387       .  D
C185        C907   1.517       .  S
C185        C997   1.510       .  S
C186        C767   1.504       .  S
C186        C817   1.505       .  S
C187       C1220   1.370       .  D
C187        C894   1.519       .  S
C187       C1004   1.502       .  S
C188       C1219   1.370       .  D
C188        C757   1.488       .  S
C188        C827   1.479       .  S
C189        C190   1.381       .  D
C189        C857   1.518       .  S
C189        C964   1.497       .  S
C190        C867   1.499       .  S
C190        C957   1.512       .  S
C191        C192   1.395       .  D
C191        C747   1.511   1_655  S
C191        C797   1.516       .  S
C192        C737   1.515   1_655  S
C192        C807   1.505       .  S
C193       C1226   1.389       .  D
C193        C717   1.521       .  S
C193        C787   1.508       .  S
C194       C1225   1.389   1_554  D
C194        C694   1.499       .  S
C194        C704   1.512       .  S
C195        C196   1.372       .  D
C195        C727   1.491       .  S
C195        C774   1.500       .  S
C196        C674   1.516       .  S
C196        C687   1.499       .  S
N197        N198   1.329       .  A
N197        N203   1.314       .  A
N197       Mn226   2.251       .  S
N198        C205   1.364       .  A
N199        N201   1.312       .  A
N199        N200   1.310       .  A
N199       Mn215   2.166       .  S
N200        C206   1.344       .  A
N201        N202   1.331       .  A
N201       Mn226   2.220       .  S
N202        C206   1.362       .  A
N203        N204   1.310       .  A
N203       Mn215   2.141       .  S
N204        C205   1.340       .  A
C205        C697   1.469       .  S
C206        C654   1.478       .  S
N207        N213   1.311       .  A
N207        N208   1.335       .  A
N207       Mn237   2.240       .  S
N208        C216   1.368       .  A
N209        N210   1.316       .  A
N209        N211   1.313       .  A
N209       Mn215   2.170       .  S
N210        C217   1.346       .  A
N211        N212   1.330       .  A
N211       Mn237   2.245       .  S
N212        C217   1.362       .  A
N213        N214   1.303       .  A
N213       Mn215   2.142       .  S
N214        C216   1.340       .  A
Mn215      Cl239   2.496       .  S
C216        C667   1.494       .  S
C217        C677   1.482       .  S
N218        N219   1.336       .  A
N218        N224   1.318       .  A
N218       Mn226   2.258       .  S
N219        C227   1.367       .  A
N220        N222   1.323       .  A
N220        N221   1.326       .  A
N220       Mn238   2.233       .  S
N221        C228   1.357       .  A
N222        N223   1.320       .  A
N222       Mn226   2.202       .  S
N223        C228   1.345       .  A
N224        N225   1.308       .  A
N224       Mn238   2.184       .  S
N225        C227   1.343       .  A
Mn226      Cl239   2.589       .  S
C227        C647   1.495       .  S
C228        C624   1.480   1_554  S
N229        N230   1.317       .  A
N229        N235   1.324       .  A
N229       Mn237   2.204       .  S
N230        C240   1.345       .  A
N231        N232   1.315       .  A
N231        N233   1.319       .  A
N231       Mn238   2.196       .  S
N232        C241   1.344       .  A
N233        N234   1.331       .  A
N233       Mn237   2.242       .  S
N234        C241   1.362       .  A
N235        N236   1.327       .  A
N235       Mn238   2.236       .  S
N236        C240   1.357       .  A
Mn237      Cl239   2.590       .  S
Mn238      Cl239   2.509       .  S
C240        C614   1.483       .  S
C241        C634   1.482       .  S
N242        N243   1.333       .  A
N242        N248   1.313       .  A
N242       Mn271   2.251       .  S
N243        C250   1.368       .  A
N244        N246   1.315       .  A
N244        N245   1.314       .  A
N244       Mn260   2.172       .  S
N245        C251   1.345       .  A
N246        N247   1.327       .  A
N246       Mn271   2.222       .  S
N247        C251   1.357       .  A
N248        N249   1.303       .  A
N248       Mn260   2.137       .  S
N249        C250   1.339       .  A
C250        C684   1.487       .  S
C251        C594   1.467       .  S
N252        N258   1.312       .  A
N252        N253   1.328       .  A
N252       Mn282   2.221       .  S
N253        C261   1.359       .  A
N254        N255   1.317       .  A
N254        N256   1.316       .  A
N254       Mn260   2.194       .  S
N255        C262   1.348       .  A
N256        N257   1.332       .  A
N256       Mn282   2.252       .  S
N257        C262   1.364       .  A
N258        N259   1.310       .  A
N258       Mn260   2.145       .  S
N259        C261   1.341       .  A
Mn260      Cl284   2.488       .  S
C261        C607   1.463       .  S
C262        C707   1.492       .  S
N263        N264   1.336       .  A
N263        N269   1.314       .  A
N263       Mn271   2.246       .  S
N264        C272   1.369       .  A
N265        N267   1.324       .  A
N265        N266   1.324       .  A
N265       Mn283   2.224       .  S
N266        C273   1.354       .  A
N267        N268   1.324       .  A
N267       Mn271   2.219       .  S
N268        C273   1.349       .  A
N269        N270   1.303       .  A
N269       Mn283   2.153       .  S
N270        C272   1.339       .  A
Mn271      Cl284   2.598       .  S
C272        C584   1.490       .  S
C273        C567   1.489       .  S
N274        N275   1.320       .  A
N274        N280   1.323       .  A
N274       Mn282   2.198       .  S
N275        C285   1.346       .  A
N276        N277   1.314       .  A
N276        N278   1.317       .  A
N276       Mn283   2.184       .  S
N277        C286   1.343       .  A
N278        N279   1.330       .  A
N278       Mn282   2.241       .  S
N279        C286   1.363       .  A
N280        N281   1.324       .  A
N280       Mn283   2.216       .  S
N281        C285   1.353       .  A
Mn282      Cl284   2.592       .  S
Mn283      Cl284   2.494       .  S
C285        C557   1.484   1_554  S
C286        C574   1.476       .  S
C287        C288   1.377       .  D
C287        C534   1.491       .  S
C287        C544   1.491       .  S
C288        C597   1.508       .  S
C288        C664   1.502       .  S
C289       C1322   1.384   1_554  D
C289        C604   1.504       .  S
C289        C657   1.499       .  S
C290       C1321   1.384       .  D
C290        C517   1.504       .  S
C290        C524   1.511       .  S
N291        N292   1.322       .  A
N291        N297   1.310       .  A
N291       Mn320   2.203       .  S
N292        C299   1.358       .  A
N293        N295   1.310       .  A
N293        N294   1.304       .  A
N293       Mn309   2.130       .  S
N294        C300   1.338       .  A
N295        N296   1.329       .  A
N295       Mn320   2.207       .  S
N296        C300   1.360       .  A
N297        N298   1.310       .  A
N297       Mn309   2.140       .  S
N298        C299   1.343       .  A
C299        C537   1.468       .  S
C300        C504   1.460       .  S
N301        N307   1.311       .  A
N301        N302   1.333       .  A
N301       Mn331   2.238       .  S
N302        C310   1.365       .  A
N303        N304   1.311       .  A
N303        N305   1.311       .  A
N303       Mn309   2.170       .  S
N304        C311   1.347       .  A
N305        N306   1.324       .  A
N305       Mn331   2.198       .  S
N306        C311   1.358       .  A
N307        N308   1.304       .  A
N307       Mn309   2.129       .  S
N308        C310   1.334       .  A
Mn309      Cl333   2.489       .  S
C310        C494   1.477       .  S
C311        C514   1.474       .  S
N312        N313   1.323       .  A
N312        N318   1.317       .  A
N312       Mn320   2.210       .  S
N313        C321   1.359       .  A
N314        N316   1.318       .  A
N314        N315   1.338       .  A
N314       Mn332   2.284       .  S
N315        C322   1.374       .  A
N316        N317   1.305       .  A
N316       Mn320   2.151       .  S
N317        C322   1.333       .  A
N318        N319   1.316       .  A
N318       Mn332   2.206       .  S
N319        C321   1.349       .  A
Mn320      Cl333   2.556       .  S
C321        C464   1.487       .  S
C322        C477   1.500       .  S
N323        N324   1.312       .  A
N323        N329   1.321       .  A
N323       Mn331   2.182       .  S
N324        C334   1.341       .  A
N325        N326   1.320       .  A
N325        N327   1.321       .  A
N325       Mn332   2.226       .  S
N326        C335   1.352       .  A
N327        N328   1.323       .  A
N327       Mn331   2.209       .  S
N328        C335   1.354       .  A
N329        N330   1.334       .  A
N329       Mn332   2.263       .  S
N330        C334   1.366       .  A
Mn331      Cl333   2.568       .  S
Mn332      Cl333   2.552       .  S
C334        C487   1.488       .  S
C335        C454   1.480       .  S
N336        N337   1.321       .  A
N336        N342   1.312       .  A
N336       Mn365   2.193       .  S
N337        C344   1.352       .  A
N338        N340   1.310       .  A
N338        N339   1.306       .  A
N338       Mn354   2.131       .  S
N339        C345   1.337       .  A
N340        N341   1.331       .  A
N340       Mn365   2.223       .  S
N341        C345   1.364       .  A
N342        N343   1.313       .  A
N342       Mn354   2.163       .  S
N343        C344   1.346       .  A
C344        C527   1.451       .  S
C345        C447   1.468       .  S
N346        N352   1.310       .  A
N346        N347   1.330       .  A
N346       Mn376   2.219       .  S
N347        C355   1.364       .  A
N348        N349   1.310       .  A
N348        N350   1.312       .  A
N348       Mn354   2.158       .  S
N349        C356   1.345       .  A
N350        N351   1.324       .  A
N350       Mn376   2.203       .  S
N351        C356   1.356       .  A
N352        N353   1.300       .  A
N352       Mn354   2.120       .  S
N353        C355   1.336       .  A
Mn354      Cl378   2.491       .  S
C355        C437   1.473       .  S
C356        C547   1.456       .  S
N357        N358   1.321       .  A
N357        N363   1.317       .  A
N357       Mn365   2.205       .  S
N358        C366   1.356       .  A
N359        N361   1.318       .  A
N359        N360   1.337       .  A
N359       Mn377   2.273       .  S
N360        C367   1.372       .  A
N361        N362   1.307       .  A
N361       Mn365   2.162       .  S
N362        C367   1.338       .  A
N363        N364   1.316       .  A
N363       Mn377   2.195       .  S
N364        C366   1.349       .  A
Mn365      Cl378   2.554       .  S
C366        C404   1.481       .  S
C367        C414   1.503       .  S
N368        N369   1.313       .  A
N368        N374   1.321       .  A
N368       Mn376   2.178       .  S
N369        C379   1.341       .  A
N370        N371   1.321       .  A
N370        N372   1.320       .  A
N370       Mn377   2.221       .  S
N371        C380   1.350       .  A
N372        N373   1.323       .  A
N372       Mn376   2.207       .  S
N373        C380   1.354       .  A
N374        N375   1.332       .  A
N374       Mn377   2.261       .  S
N375        C379   1.364       .  A
Mn376      Cl378   2.569       .  S
Mn377      Cl378   2.548       .  S
C379        C424   1.478       .  S
C380        C394   1.474       .  S
C381        C382   1.368       .  D
C381        C587   1.494       .  S
C381        C637   1.520   1_655  S
C382        C434   1.479   1_655  S
C382        C507   1.486       .  S
C383       C1416   1.377       .  D
C383        C577   1.517       .  S
C383        C644   1.506   1_655  S
C384       C1415   1.377       .  D
C384        C444   1.485   1_655  S
C384        C497   1.507       .  S
C385        C386   1.382       .  D
C385        C554   1.510       .  S
C385        C627   1.503   1_655  S
C386        C564   1.509       .  S
C386        C617   1.506   1_655  S
C387        C388   1.391       .  D
C387        C417   1.511       .  S
C387        C484   1.508       .  S
C388        C427   1.509       .  S
C388        C474   1.508       .  S
C389        C390   1.378   1_565  D
C389        C887   1.520   1_655  S
C389        C974   1.504       .  S
C390       C1439   1.495   1_654  S
C390       C1489   1.497   1_554  S
C391        C392   1.382   1_545  D
C391        C397   1.505   1_655  S
C391        C467   1.511       .  S
C392        C877   1.502   1_655  S
C392        C987   1.515       .  S
C393        C394   1.395       .  A
C393        C398   1.399       .  A
C393        H400   1.084       .  S
C394        C395   1.407       .  A
C395        C396   1.402       .  A
C395       Br402   1.913       .  S
C396        C397   1.406       .  A
C396        H401   1.084       .  S
C397        C398   1.418       .  A
C398       Br399   1.903       .  S
C403        C404   1.409       .  A
C403        C408   1.397       .  A
C403        H410   1.083       .  S
C404        C405   1.409       .  A
C405        C406   1.393       .  A
C405       Br412   1.922       .  S
C406        C407   1.404       .  A
C406       H1443   1.071       .  S
C407       C1422   1.495   1_455  S
C407        C408   1.410       .  A
C408       Br409   1.921   1_545  S
H411       C1438   1.071       .  S
C413        C418   1.396       .  A
C413       C1446   1.413       .  A
C413        H420   1.082       .  S
C414        C415   1.407       .  A
C414       C1445   1.413       .  A
C415       C1448   1.410       .  A
C415       Br422   1.916       .  S
C416        C417   1.419       .  A
C416       C1447   1.410       .  A
C416        H421   1.082       .  S
C417        C418   1.413       .  A
C418       Br419   1.919       .  S
C423        C424   1.410       .  A
C423        C428   1.414       .  A
C423        H430   1.083       .  S
C424        C425   1.403       .  A
C425        C426   1.392       .  A
C425       Br432   1.922       .  S
C426        C427   1.413       .  A
C426        H431   1.082       .  S
C427        C428   1.413       .  A
C428       Br429   1.915       .  S
C433        C434   1.413       .  A
C433        C438   1.399       .  A
C433        H440   1.083       .  S
C434        C435   1.401       .  A
C435        C436   1.379       .  A
C435       Br442   1.921       .  S
C436        C437   1.411       .  A
C436        H441   1.083       .  S
C437        C438   1.403       .  A
C438       Br439   1.916       .  S
C443        C444   1.407       .  A
C443        C448   1.407       .  A
C443        H450   1.083       .  S
C444        C445   1.405       .  A
C445        C446   1.386       .  A
C445       Br452   1.919   1_455  S
C446        C447   1.402       .  A
C446        H451   1.084       .  S
C447        C448   1.409       .  A
C448       Br449   1.916       .  S
C453        C454   1.398       .  A
C453       C1490   1.402       .  A
C453       H1492   1.083       .  S
C454        C455   1.406       .  A
C455        C456   1.394       .  A
C455       Br462   1.901       .  S
C456        C457   1.399       .  A
C456        H461   1.083       .  S
C457       C1422   1.496       .  S
C457       C1490   1.424       .  A
C458       C1485   1.402       .  A
C458       C1489   1.424   1_554  A
C458       Br459   1.918       .  S
H460       C1485   1.083       .  S
C463        C464   1.400       .  A
C463        C468   1.399       .  A
C463        H470   1.083       .  S
C464        C465   1.415       .  A
C465        C466   1.398       .  A
C465       Br472   1.923       .  S
C466        C467   1.407       .  A
C466        H471   1.081   1_545  S
C467        C468   1.420       .  A
C468       Br469   1.915       .  S
C473        C474   1.395       .  A
C473        C478   1.395       .  A
C473        H480   1.077       .  S
C474        C475   1.419       .  A
C475        C476   1.411       .  A
C475       Br482   1.915       .  S
C476        C477   1.403       .  A
C476        H481   1.083       .  S
C477        C478   1.428       .  A
C478       Br479   1.927       .  S
C483        C484   1.411       .  A
C483        C488   1.414       .  A
C483        H490   1.083       .  S
C484        C485   1.415       .  A
C485        C486   1.395       .  A
C485       Br492   1.915       .  S
C486       C1519   1.400       .  A
C486       H1523   1.084       .  S
C487       C1518   1.400       .  A
C487       C1520   1.411       .  A
C488       C1519   1.411       .  A
C488      Br1521   1.914       .  S
Br489      C1520   1.914       .  S
H491       C1518   1.084       .  S
C493        C494   1.396       .  A
C493        C498   1.404       .  A
C493       H1532   1.083       .  S
C494        C495   1.417       .  A
C495        C496   1.388       .  A
C495       Br502   1.927       .  S
C496        C497   1.400       .  A
C496        H501   1.081       .  S
C497        C498   1.423       .  A
C498      Br1531   1.916       .  S
Br499      C1530   1.916       .  S
H500       C1525   1.083       .  S
C503        C504   1.402       .  A
C503        C508   1.406       .  A
C503        H510   1.083       .  S
C504        C505   1.403       .  A
C505        C506   1.382       .  A
C505       Br512   1.925       .  S
C506        C507   1.402       .  A
C506        H511   1.082       .  S
C507        C508   1.413       .  A
C508       Br509   1.911       .  S
C513        C514   1.402       .  A
C513        C518   1.401       .  A
C513        H520   1.083       .  S
C514        C515   1.409       .  A
C515        C516   1.388       .  A
C515       Br522   1.922       .  S
C516        C517   1.404       .  A
C516        H521   1.081       .  S
C517        C518   1.421       .  A
C518       Br519   1.923       .  S
C523        C524   1.412       .  A
C523        C528   1.389       .  A
C523        H530   1.063       .  S
C524        C525   1.423       .  A
C525        C526   1.393       .  A
C525       Br532   1.927       .  S
C526        C527   1.390       .  A
C526        H531   1.077       .  S
C527        C528   1.391       .  A
C528       Br529   1.920       .  S
C533        C534   1.399       .  A
C533        C538   1.386       .  A
C533        H540   1.083       .  S
C534        C535   1.416       .  A
C535        C536   1.393       .  A
C535       Br542   1.920       .  S
C536        C537   1.399       .  A
C536        H541   1.081       .  S
C537        C538   1.413       .  A
C538       Br539   1.918       .  S
C543        C544   1.402       .  A
C543        C548   1.384       .  A
C543        H550   1.083       .  S
C544        C545   1.416       .  A
C545        C546   1.401       .  A
C545       Br552   1.894       .  S
C546        C547   1.394       .  A
C546        H551   1.083       .  S
C547        C548   1.397       .  A
C548       Br549   1.904       .  S
C553        C554   1.415       .  A
C553       C1590   1.396       .  A
C553        H560   1.080       .  S
C554        C555   1.417       .  A
C555        C556   1.406       .  A
C555       Br562   1.919       .  S
C556       C1589   1.409       .  A
C556        H561   1.084       .  S
C557        C558   1.402       .  A
C557       C1588   1.409       .  A
C558       C1585   1.396       .  A
C558       Br559   1.919   1_556  S
C563        C564   1.408       .  A
C563        C568   1.396       .  A
C563        H570   1.084       .  S
C564        C565   1.416       .  A
C565        C566   1.412       .  A
C565       Br572   1.916       .  S
C566        C567   1.407       .  A
C566        H571   1.083       .  S
C567        C568   1.411       .  A
C568       Br569   1.923       .  S
C573        C574   1.397   1_556  A
C573        C578   1.404       .  A
C573        H580   1.084       .  S
C574        C575   1.405       .  A
C575        C576   1.401       .  A
C575       Br582   1.918       .  S
C576        C577   1.411       .  A
C576        H581   1.082       .  S
C577        C578   1.420   1_554  A
C578       Br579   1.907       .  S
C583        C584   1.407       .  A
C583        C588   1.381       .  A
C583        H590   1.082       .  S
C584        C585   1.412       .  A
C585        C586   1.417       .  A
C585       Br592   1.914       .  S
C586        C587   1.414       .  A
C586        H591   1.083       .  S
C587        C588   1.396       .  A
C588       Br589   1.910       .  S
C593        C594   1.398       .  A
C593        C598   1.398       .  A
C593        H600   1.084       .  S
C594        C595   1.405       .  A
C595        C596   1.399       .  A
C595       Br602   1.918       .  S
C596        C597   1.407       .  A
C596        H601   1.083       .  S
C597        C598   1.419       .  A
C598       Br599   1.914       .  S
C603        C604   1.409   1_556  A
C603        C608   1.402       .  A
C603       H1642   1.082       .  S
C604        C605   1.418       .  A
C605        C606   1.392       .  A
C605       Br612   1.910       .  S
C606        C607   1.396       .  A
C606        H611   1.085       .  S
C607        C608   1.404   1_554  A
C608       Br609   1.916       .  S
H610       C1635   1.082       .  S
C613        C614   1.399       .  A
C613        C618   1.403       .  A
C613        H620   1.083       .  S
C614        C615   1.417       .  A
C615        C616   1.399       .  A
C615       Br622   1.924       .  S
C616        C617   1.404       .  A
C616        H621   1.081       .  S
C617        C618   1.416       .  A
C618       Br619   1.916       .  S
C623        C628   1.398       .  A
C623       C1656   1.402       .  A
C623        H630   1.084       .  S
C624        C625   1.407       .  A
C624       C1655   1.402       .  A
C625       C1658   1.408       .  A
C625       Br632   1.914       .  S
C626        C627   1.409       .  A
C626       C1657   1.408       .  A
C626        H631   1.083       .  S
C627        C628   1.411       .  A
C628       Br629   1.917       .  S
C633        C634   1.402       .  A
C633        C638   1.408       .  A
C633        H640   1.084       .  S
C634        C635   1.406       .  A
C635        C636   1.399       .  A
C635       Br642   1.916       .  S
C636        C637   1.411       .  A
C636        H641   1.082       .  S
C637        C638   1.423       .  A
C638       Br639   1.925       .  S
C643        C644   1.389       .  A
C643        C648   1.389       .  A
C643        H650   1.078       .  S
C644        C645   1.421   1_554  A
C645        C646   1.418       .  A
C645      Br1684   1.908       .  S
C646        C647   1.405   1_556  A
C646        H651   1.083       .  S
C647        C648   1.410       .  A
C648       Br649   1.896       .  S
Br652      C1677   1.908       .  S
C653        C654   1.396       .  A
C653        C658   1.384       .  A
C653        H660   1.085       .  S
C654        C655   1.412   1_554  A
C655        C656   1.415       .  A
C655       Br662   1.914       .  S
C656        C657   1.410   1_556  A
C656        H661   1.082       .  S
C657        C658   1.404       .  A
C658       Br659   1.891       .  S
C663        C664   1.415       .  A
C663        C668   1.414       .  A
C663        H670   1.082       .  S
C664        C665   1.410       .  A
C665        C666   1.381       .  A
C665       Br672   1.926       .  S
C666        C667   1.407       .  A
C666        H671   1.082       .  S
C667        C668   1.411       .  A
C668       Br669   1.915       .  S
C673        C674   1.408       .  A
C673        C678   1.401       .  A
C673        H680   1.078       .  S
C674        C675   1.417       .  A
C675        C676   1.408       .  A
C675       Br682   1.915       .  S
C676        C677   1.402       .  A
C676        H681   1.083       .  S
C677        C678   1.407       .  A
C678       Br679   1.918       .  S
C683        C684   1.408       .  A
C683        C688   1.383       .  A
C683        H690   1.081       .  S
C684        C685   1.406       .  A
C685        C686   1.408       .  A
C685       Br692   1.916       .  S
C686        C687   1.413       .  A
C686        H691   1.070       .  S
C687        C688   1.400       .  A
C688       Br689   1.912       .  S
C693        C694   1.408   1_556  A
C693        C698   1.399       .  A
C693        H700   1.075       .  S
C694        C695   1.411       .  A
C695        C696   1.398       .  A
C695       Br702   1.916       .  S
C696        C697   1.404       .  A
C696        H701   1.083       .  S
C697        C698   1.404   1_554  A
C698       Br699   1.918       .  S
C703        C704   1.405       .  A
C703        C708   1.401       .  A
C703        H710   1.083       .  S
C704        C705   1.419   1_554  A
C705        C706   1.412       .  A
C705       Br712   1.905       .  S
C706        C707   1.402   1_556  A
C706        H711   1.083       .  S
C707        C708   1.408       .  A
C708       Br709   1.914       .  S
C713        C714   1.405       .  A
C713        C718   1.407       .  A
C713        H720   1.083       .  S
C714        C715   1.411       .  A
C715        C716   1.396       .  A
C715       Br722   1.925       .  S
C716        C717   1.409       .  A
C716        H721   1.078       .  S
C717        C718   1.421       .  A
C718       Br719   1.920       .  S
C723        C724   1.404       .  A
C723        C728   1.408       .  A
C723        H730   1.083       .  S
C724        C725   1.407       .  A
C725        C726   1.385       .  A
C725       Br732   1.892       .  S
C726        C727   1.392       .  A
C726        H731   1.078       .  S
C727        C728   1.416       .  A
C728       Br729   1.914       .  S
C733        C734   1.402       .  A
C733        C738   1.395       .  A
C733        H740   1.084       .  S
C734        C735   1.412       .  A
C735        C736   1.418       .  A
C735       Br742   1.914       .  S
C736        C737   1.414       .  A
C736        H741   1.082       .  S
C737        C738   1.416       .  A
C738       Br739   1.916       .  S
C743        C748   1.408       .  A
C743       C1776   1.401       .  A
C743       H1782   1.083   1_554  S
C744        C745   1.427       .  A
C744       C1775   1.401       .  A
C745       C1778   1.392       .  A
C745       Br752   1.930       .  S
C746        C747   1.396       .  A
C746       C1777   1.392       .  A
C746        H751   1.073       .  S
C747        C748   1.422       .  A
C748       Br749   1.916       .  S
H750       C1775   1.083       .  S
C753        C754   1.411       .  A
C753        C758   1.384       .  A
C753        H760   1.082       .  S
C754        C755   1.407       .  A
C755        C756   1.404       .  A
C755      Br1794   1.917       .  S
C756        C757   1.411       .  A
C756       H1793   1.081       .  S
C757        C758   1.405       .  A
C758       Br759   1.924       .  S
H761       C1788   1.081       .  S
Br762      C1787   1.917       .  S
C763        C764   1.399       .  A
C763        C768   1.404       .  A
C763        H770   1.083       .  S
C764        C765   1.420       .  A
C765        C766   1.379       .  A
C765       Br772   1.931       .  S
C766        C767   1.396       .  A
C766        H771   1.082       .  S
C767        C768   1.419       .  A
C768       Br769   1.913       .  S
C773        C774   1.406       .  A
C773        C778   1.408       .  A
C773        H780   1.079       .  S
C774        C775   1.410       .  A
C775        C776   1.394       .  A
C775       Br782   1.905       .  S
C776        C777   1.401       .  A
C776        H781   1.084       .  S
C777        C778   1.413       .  A
C778       Br779   1.917       .  S
C783        C784   1.396       .  A
C783        C788   1.397       .  A
C783        H790   1.084       .  S
C784        C785   1.401       .  A
C785        C786   1.399       .  A
C785      Br1824   1.918       .  S
C786        C787   1.410       .  A
C786       H1823   1.075       .  S
C787        C788   1.421       .  A
C788       Br789   1.917       .  S
H791       C1818   1.075       .  S
Br792      C1817   1.918       .  S
C793        C798   1.416       .  A
C793       C1826   1.410       .  A
C793        H800   1.083       .  S
C794        C795   1.404       .  A
C794       C1825   1.410       .  A
C795       C1828   1.398       .  A
C795       Br802   1.921       .  S
C796        C797   1.414       .  A
C796       C1827   1.398       .  A
C796        H801   1.084       .  S
C797        C798   1.415       .  A
C798       Br799   1.916       .  S
C803        C804   1.412       .  A
C803        C808   1.392       .  A
C803        H810   1.082       .  S
C804        C805   1.405       .  A
C805        C806   1.408       .  A
C805       Br812   1.916       .  S
C806        C807   1.418       .  A
C806        H811   1.082       .  S
C807        C808   1.412       .  A
C808       Br809   1.919       .  S
C813        C814   1.403       .  A
C813        C818   1.407       .  A
C813        H820   1.083       .  S
C814        C815   1.392       .  A
C815        C816   1.385       .  A
C815       Br822   1.923       .  S
C816        C817   1.415       .  A
C816        H821   1.083       .  S
C817        C818   1.419       .  A
C818       Br819   1.913       .  S
C823        C824   1.403       .  A
C823        C828   1.407       .  A
C823        H830   1.083       .  S
C824        C825   1.419       .  A
C825        C826   1.379       .  A
C825       Br832   1.918       .  S
C826        C827   1.389       .  A
C826        H831   1.081       .  S
C827        C828   1.409       .  A
C828      Br1861   1.903       .  S
Br829      C1860   1.903       .  S
C833        C834   1.392       .  A
C833        C838   1.383       .  A
C833        H840   1.077       .  S
C834        C835   1.414       .  A
C835        C836   1.402       .  A
C835      Br1874   1.919       .  S
C836        C837   1.402       .  A
C836        H841   1.083       .  S
C837        C838   1.408       .  A
C838       Br839   1.907       .  S
Br842      C1867   1.920       .  S
C843        C844   1.403       .  A
C843        C848   1.402       .  A
C843        H850   1.080       .  S
C844        C845   1.412       .  A
C845        C846   1.389       .  A
C845       Br852   1.929       .  S
C846        C847   1.405       .  A
C846        H851   1.083       .  S
C847        C848   1.414       .  A
C848       Br849   1.918       .  S
C853        C858   1.411       .  A
C853       C1886   1.408       .  A
C853        H860   1.084       .  S
C854        C855   1.404       .  A
C854       C1885   1.408       .  A
C855       C1888   1.403       .  A
C855       Br862   1.917   1_556  S
C856        C857   1.414       .  A
C856       C1887   1.403       .  A
C856        H861   1.082       .  S
C857        C858   1.419       .  A
C858       Br859   1.918       .  S
C863        C864   1.406       .  A
C863        C868   1.408       .  A
C863        H870   1.083       .  S
C864        C865   1.410       .  A
C865        C866   1.392       .  A
C865       Br872   1.924       .  S
C866        C867   1.407       .  A
C866        H871   1.083       .  S
C867        C868   1.414       .  A
C868       Br869   1.916       .  S
C873        C874   1.402       .  A
C873        C878   1.377       .  A
C873        H880   1.085       .  S
C874        C875   1.412       .  A
C875        C876   1.420       .  A
C875       Br882   1.913       .  S
C876        C877   1.417       .  A
C876        H881   1.083       .  S
C877        C878   1.402       .  A
C878       Br879   1.903       .  S
C883        C884   1.402       .  A
C883        C888   1.403       .  A
C883        H890   1.084       .  S
C884        C885   1.407   1_554  A
C885        C886   1.409       .  A
C885       Br892   1.917       .  S
C886        C887   1.414   1_556  A
C886        H891   1.079       .  S
C887        C888   1.415       .  A
C888       Br889   1.906   1_565  S
C893        C894   1.414       .  A
C893        C898   1.402       .  A
C893        H900   1.081       .  S
C894        C895   1.422       .  A
C895        C896   1.401       .  A
C895      Br1934   1.915   1_554  S
C896        C897   1.398       .  A
C896        H901   1.084   1_554  S
C897        C898   1.401       .  A
C898       Br899   1.913       .  S
Br902      C1927   1.916       .  S
C903        C904   1.401       .  A
C903        C908   1.406       .  A
C903        H910   1.083       .  S
C904        C905   1.402       .  A
C905        C906   1.394       .  A
C905       Br912   1.909       .  S
C906        C907   1.407       .  A
C906        H911   1.083       .  S
C907        C908   1.417       .  A
C908       Br909   1.917       .  S
C913        C914   1.416       .  A
C913        C918   1.394       .  A
C913        H920   1.057   1_554  S
C914        C915   1.416       .  A
C915        C916   1.391       .  A
C915       Br922   1.928   1_455  S
C916        C917   1.408       .  A
C916        H921   1.083       .  S
C917        C918   1.396       .  A
C918       Br919   1.921   1_554  S
C923        C924   1.410       .  A
C923        C928   1.411       .  A
C923        H930   1.083       .  S
C924        C925   1.404       .  A
C925        C926   1.392       .  A
C925       Br932   1.915       .  S
C926        C927   1.407       .  A
C926        H931   1.084       .  S
C927        C928   1.409       .  A
C928       Br929   1.915       .  S
C933        C934   1.409       .  A
C933        C938   1.401       .  A
C933        H940   1.083       .  S
C934        C935   1.411       .  A
C935        C936   1.390       .  A
C935       Br942   1.922       .  S
C936        C937   1.405       .  A
C936        H941   1.083       .  S
C937        C938   1.411       .  A
C938       Br939   1.918       .  S
C943        C944   1.407       .  A
C943        C948   1.399       .  A
C943        H950   1.076       .  S
C944        C945   1.406       .  A
C945        C946   1.384       .  A
C945       Br952   1.899   1_455  S
C946        C947   1.395       .  A
C946        H951   1.085       .  S
C947        C948   1.402       .  A
C948       Br949   1.916       .  S
C953        C954   1.401       .  A
C953        C958   1.407       .  A
C953        H960   1.083       .  S
C954        C955   1.417       .  A
C955        C956   1.407       .  A
C955       Br962   1.920       .  S
C956        C957   1.405       .  A
C956        H961   1.083       .  S
C957        C958   1.416       .  A
C958       Br959   1.914       .  S
C963        C964   1.408       .  A
C963        C968   1.408       .  A
C963        H970   1.083       .  S
C964        C965   1.410       .  A
C965       C1998   1.395       .  A
C965       Br972   1.913       .  S
C966        C967   1.401       .  A
C966       C1997   1.395       .  A
C966        H971   1.084       .  S
C967       C2000   1.407       .  A
C968       C1999   1.407       .  A
C968      Br2001   1.913       .  S
Br969      C2000   1.913       .  S
C973        C974   1.412   1_556  A
C973        C978   1.413       .  A
C973       H2012   1.082       .  S
C974        C975   1.406       .  A
C975        C976   1.389       .  A
C975       Br982   1.893       .  S
C976        C977   1.396       .  A
C976        H981   1.082       .  S
C977        C978   1.409   1_554  A
C978      Br2011   1.914       .  S
Br979      C2010   1.914       .  S
H980       C2005   1.082       .  S
C983        C984   1.401       .  A
C983        C988   1.405       .  A
C983        H990   1.083       .  S
C984        C985   1.407       .  A
C985        C986   1.404       .  A
C985       Br992   1.916       .  S
C986        C987   1.411       .  A
C986        H991   1.083       .  S
C987        C988   1.417       .  A
C988       Br989   1.917       .  S
C993        C994   1.412       .  A
C993        C998   1.422       .  A
C993       H1000   1.083       .  S
C994        C995   1.423       .  A
C995        C996   1.378       .  A
C995      Br1002   1.937       .  S
C996        C997   1.397       .  A
C996       H1001   1.081       .  S
C997        C998   1.421       .  A
C998       Br999   1.915       .  S
C1003      C1004   1.413   1_556  A
C1003      C1008   1.414   1_556  A
C1003      H1010   1.082       .  S
C1004      C1005   1.399       .  A
C1005      C1006   1.394       .  A
C1005     Br1012   1.917       .  S
C1006      C1007   1.413       .  A
C1006      H1011   1.082       .  S
C1007      C1008   1.412       .  A
C1008     Br1009   1.915   1_554  S
C1013      C1014   1.412       .  A
C1013      C1018   1.398       .  A
C1013      H1020   1.074       .  S
C1014      C1015   1.418   1_554  A
C1015      C1016   1.401       .  A
C1015     Br2054   1.919       .  S
C1016      C1017   1.400   1_556  A
C1016      H1021   1.083       .  S
C1017      C1018   1.399       .  A
C1018     Br1019   1.917       .  S
Br1022     C2047   1.919       .  S
C1023      C1024   1.407       .  A
C1023      C1028   1.396       .  A
C1023      H1030   1.083       .  S
C1024      C1025   1.421       .  A
C1025      C1026   1.399       .  A
C1025     Br1032   1.917       .  S
C1026      C1027   1.397       .  A
C1026      H1031   1.084       .  S
C1027      C1028   1.404       .  A
C1028     Br1029   1.913       .  S
N1033      N1034   1.327       .  A
N1033      N1039   1.314       .  A
N1033     Mn1062   2.230       .  S
N1034      C1041   1.361       .  A
N1035      N1037   1.318       .  A
N1035      N1036   1.319       .  A
N1035     Mn1051   2.201       .  S
N1036      C1042   1.349       .  A
N1037      N1038   1.328       .  A
N1037     Mn1062   2.245       .  S
N1038      C1042   1.360       .  A
N1039      N1040   1.312       .  A
N1039     Mn1051   2.157       .  S
N1040      C1041   1.341       .  A
C1041      C2059   1.465       .  S
C1042      C2016   1.483       .  S
N1043      N1049   1.315       .  A
N1043      N1044   1.331       .  A
N1043     Mn1073   2.244       .  S
N1044      C1052   1.362       .  A
N1045      N1046   1.313       .  A
N1045      N1047   1.314       .  A
N1045     Mn1051   2.175       .  S
N1046      C1053   1.345       .  A
N1047      N1048   1.327       .  A
N1047     Mn1073   2.215       .  S
N1048      C1053   1.358       .  A
N1049      N1050   1.311       .  A
N1049     Mn1051   2.167       .  S
N1050      C1052   1.345       .  A
Mn1051    Cl1075   2.500       .  S
C1052      C2009   1.478       .  S
C1053      C2049   1.467       .  S
N1054      N1055   1.322       .  A
N1054      N1060   1.324       .  A
N1054     Mn1062   2.214       .  S
N1055      C1063   1.347       .  A
N1056      N1058   1.314       .  A
N1056      N1057   1.301       .  A
N1056     Mn1074   2.159       .  S
N1057      C1064   1.333       .  A
N1058      N1059   1.339       .  A
N1058     Mn1062   2.255       .  S
N1059      C1064   1.372       .  A
N1060      N1061   1.329       .  A
N1060     Mn1074   2.238       .  S
N1061      C1063   1.357       .  A
Mn1062    Cl1075   2.596       .  S
C1063      C1986   1.493       .  S
C1064      C2026   1.498       .  S
N1065      N1066   1.336       .  A
N1065      N1071   1.314       .  A
N1065     Mn1073   2.256       .  S
N1066      C1076   1.370       .  A
N1067      N1068   1.325       .  A
N1067      N1069   1.322       .  A
N1067     Mn1074   2.224       .  S
N1068      C1077   1.357       .  A
N1069      N1070   1.319       .  A
N1069     Mn1073   2.205       .  S
N1070      C1077   1.346       .  A
N1071      N1072   1.309       .  A
N1071     Mn1074   2.168       .  S
N1072      C1076   1.341       .  A
Mn1073    Cl1075   2.589       .  S
Mn1074    Cl1075   2.497       .  S
C1076      C2039   1.499       .  S
C1077      C1999   1.476       .  S
C1078      C1079   1.371   1_455  D
C1078      C1956   1.497       .  S
C1078      C2056   1.504   1_455  S
C1079      C1966   1.496       .  S
C1079      C1976   1.487   1_655  S
N1080      N1081   1.328       .  A
N1080      N1086   1.310       .  A
N1080     Mn1109   2.228       .  S
N1081      C1088   1.365       .  A
N1082      N1084   1.317       .  A
N1082      N1083   1.315       .  A
N1082     Mn1098   2.175       .  S
N1083      C1089   1.344       .  A
N1084      N1085   1.332       .  A
N1084     Mn1109   2.264       .  S
N1085      C1089   1.365       .  A
N1086      N1087   1.305       .  A
N1086     Mn1098   2.120       .  S
N1087      C1088   1.337       .  A
C1088      C1949   1.474       .  S
C1089      C1916   1.486       .  S
N1090      N1096   1.311       .  A
N1090      N1091   1.338       .  A
N1090     Mn1120   2.253       .  S
N1091      C1099   1.369       .  A
N1092      N1093   1.308       .  A
N1092      N1094   1.312       .  A
N1092     Mn1098   2.150       .  S
N1093      C1100   1.341       .  A
N1094      N1095   1.334       .  A
N1094     Mn1120   2.244       .  S
N1095      C1100   1.366       .  A
N1096      N1097   1.299       .  A
N1096     Mn1098   2.122       .  S
N1097      C1099   1.339       .  A
Mn1098    Cl1122   2.479       .  S
C1099      C1906   1.489       .  S
C1100      C1959   1.484       .  S
N1101      N1102   1.324       .  A
N1101      N1107   1.324       .  A
N1101     Mn1109   2.216       .  S
N1102      C1110   1.351       .  A
N1103      N1105   1.318       .  A
N1103      N1104   1.313       .  A
N1103     Mn1121   2.184       .  S
N1104      C1111   1.343       .  A
N1105      N1106   1.330       .  A
N1105     Mn1109   2.238       .  S
N1106      C1111   1.361       .  A
N1107      N1108   1.327       .  A
N1107     Mn1121   2.242       .  S
N1108      C1110   1.357       .  A
Mn1109    Cl1122   2.600       .  S
C1110      C1886   1.495       .  S
C1111      C1929   1.472       .  S
N1112      N1113   1.329       .  A
N1112      N1118   1.317       .  A
N1112     Mn1120   2.225       .  S
N1113      C1123   1.359       .  A
N1114      N1115   1.323       .  A
N1114      N1116   1.325       .  A
N1114     Mn1121   2.230       .  S
N1115      C1124   1.355       .  A
N1116      N1117   1.320       .  A
N1116     Mn1120   2.203       .  S
N1117      C1124   1.346       .  A
N1118      N1119   1.313       .  A
N1118     Mn1121   2.184       .  S
N1119      C1123   1.344       .  A
Mn1120    Cl1122   2.601       .  S
Mn1121    Cl1122   2.496       .  S
C1123      C1936   1.472       .  S
C1124      C1896   1.479       .  S
C1125      C1946   1.515   1_655  S
C1125      C2046   1.515       .  S
C1126      C1866   1.479   1_554  S
C1126      C1876   1.484   1_654  S
N1127      N1128   1.324       .  A
N1127      N1133   1.313       .  A
N1127     Mn1156   2.194       .  S
N1128      C1135   1.355       .  A
N1129      N1131   1.312       .  A
N1129      N1130   1.301       .  A
N1129     Mn1145   2.120       .  S
N1130      C1136   1.333       .  A
N1131      N1132   1.333       .  A
N1131     Mn1156   2.243       .  S
N1132      C1136   1.367       .  A
N1133      N1134   1.309       .  A
N1133     Mn1145   2.170       .  S
N1134      C1135   1.346       .  A
C1135      C1869   1.470       .  S
C1136      C1856   1.476       .  S
N1137      N1143   1.312       .  A
N1137      N1138   1.326       .  A
N1137     Mn1167   2.196       .  S
N1138      C1146   1.356       .  A
N1139      N1140   1.311       .  A
N1139      N1141   1.310       .  A
N1139     Mn1145   2.159       .  S
N1140      C1147   1.349       .  A
N1141      N1142   1.325       .  A
N1141     Mn1167   2.212       .  S
N1142      C1147   1.358       .  A
N1143      N1144   1.311       .  A
N1143     Mn1145   2.163       .  S
N1144      C1146   1.343       .  A
Mn1145    Cl1169   2.520       .  S
C1146      C1846   1.457       .  S
C1147      C1969   1.483       .  S
N1148      N1149   1.322       .  A
N1148      N1154   1.320       .  A
N1148     Mn1156   2.203       .  S
N1149      C1157   1.353       .  A
N1150      N1152   1.322       .  A
N1150      N1151   1.332       .  A
N1150     Mn1168   2.264       .  S
N1151      C1158   1.364       .  A
N1152      N1153   1.318       .  A
N1152     Mn1156   2.200       .  S
N1153      C1158   1.344       .  A
N1154      N1155   1.319       .  A
N1154     Mn1168   2.216       .  S
N1155      C1157   1.349       .  A
Mn1156    Cl1169   2.565       .  S
C1157      C1816   1.466       .  S
C1158      C1826   1.488   1_556  S
N1159      N1160   1.304       .  A
N1159      N1165   1.318       .  A
N1159     Mn1167   2.150       .  S
N1160      C1170   1.336       .  A
N1161      N1162   1.317       .  A
N1161      N1163   1.318       .  A
N1161     Mn1168   2.213       .  S
N1162      C1171   1.351       .  A
N1163      N1164   1.326       .  A
N1163     Mn1167   2.218       .  S
N1164      C1171   1.357       .  A
N1165      N1166   1.336       .  A
N1165     Mn1168   2.265       .  S
N1166      C1170   1.371       .  A
Mn1167    Cl1169   2.554       .  S
Mn1168    Cl1169   2.547       .  S
C1170      C1836   1.496       .  S
C1171      C1809   1.487       .  S
N1172      N1173   1.322       .  A
N1172      N1178   1.311       .  A
N1172     Mn1201   2.189       .  S
N1173      C1180   1.354       .  A
N1174      N1176   1.310       .  A
N1174      N1175   1.299       .  A
N1174     Mn1190   2.123       .  S
N1175      C1181   1.331       .  A
N1176      N1177   1.333       .  A
N1176     Mn1201   2.225       .  S
N1177      C1181   1.366       .  A
N1178      N1179   1.311       .  A
N1178     Mn1190   2.160       .  S
N1179      C1180   1.346       .  A
C1180      C1979   1.454       .  S
C1181      C1796   1.474       .  S
N1182      N1188   1.308       .  A
N1182      N1183   1.332       .  A
N1182     Mn1212   2.223       .  S
N1183      C1191   1.366       .  A
N1184      N1185   1.313       .  A
N1184      N1186   1.309       .  A
N1184     Mn1190   2.162       .  S
N1185      C1192   1.350       .  A
N1186      N1187   1.324       .  A
N1186     Mn1212   2.206       .  S
N1187      C1192   1.358       .  A
N1188      N1189   1.303       .  A
N1188     Mn1190   2.127       .  S
N1189      C1191   1.338       .  A
Mn1190    Cl1214   2.478       .  S
C1191      C1786   1.484       .  S
C1192      C1879   1.482       .  S
N1193      N1194   1.325       .  A
N1193      N1199   1.320       .  A
N1193     Mn1201   2.202       .  S
N1194      C1202   1.355       .  A
N1195      N1197   1.321       .  A
N1195      N1196   1.337       .  A
N1195     Mn1213   2.278       .  S
N1196      C1203   1.369       .  A
N1197      N1198   1.311       .  A
N1197     Mn1201   2.179       .  S
N1198      C1203   1.341       .  A
N1199      N1200   1.315       .  A
N1199     Mn1213   2.224       .  S
N1200      C1202   1.351       .  A
Mn1201    Cl1214   2.575       .  S
C1202      C1756   1.484       .  S
C1203      C1766   1.495       .  S
N1204      N1205   1.304       .  A
N1204      N1210   1.319       .  A
N1204     Mn1212   2.156       .  S
N1205      C1215   1.332       .  A
N1206      N1207   1.318       .  A
N1206      N1208   1.319       .  A
N1206     Mn1213   2.228       .  S
N1207      C1216   1.353       .  A
N1208      N1209   1.325       .  A
N1208     Mn1212   2.214       .  S
N1209      C1216   1.357       .  A
N1210      N1211   1.337       .  A
N1210     Mn1213   2.269       .  S
N1211      C1215   1.371       .  A
Mn1212    Cl1214   2.560       .  S
Mn1213    Cl1214   2.551       .  S
C1215      C1776   1.495   1_556  S
C1216      C1746   1.492       .  S
C1217      C1218   1.387       .  D
C1217      C1939   1.517       .  S
C1217      C2029   1.510       .  S
C1218      C1799   1.504       .  S
C1218      C1849   1.505       .  S
C1219      C1926   1.519       .  S
C1219      C2036   1.502       .  S
C1220      C1789   1.488       .  S
C1220      C1859   1.479       .  S
C1221      C1222   1.381       .  D
C1221      C1889   1.518       .  S
C1221      C1996   1.497       .  S
C1222      C1899   1.499       .  S
C1222      C1989   1.512       .  S
C1223      C1224   1.395       .  D
C1223      C1779   1.511   1_655  S
C1223      C1829   1.516       .  S
C1224      C1769   1.515   1_655  S
C1224      C1839   1.505       .  S
C1225      C1749   1.521       .  S
C1225      C1819   1.508       .  S
C1226      C1726   1.499       .  S
C1226      C1736   1.512       .  S
C1227      C1228   1.372       .  D
C1227      C1759   1.491       .  S
C1227      C1806   1.500       .  S
C1228      C1706   1.516       .  S
C1228      C1719   1.499       .  S
N1229      N1230   1.329       .  A
N1229      N1235   1.314       .  A
N1229     Mn1258   2.251       .  S
N1230      C1237   1.364       .  A
N1231      N1233   1.312       .  A
N1231      N1232   1.310       .  A
N1231     Mn1247   2.166       .  S
N1232      C1238   1.344       .  A
N1233      N1234   1.331       .  A
N1233     Mn1258   2.220       .  S
N1234      C1238   1.362       .  A
N1235      N1236   1.310       .  A
N1235     Mn1247   2.141       .  S
N1236      C1237   1.340       .  A
C1237      C1729   1.469       .  S
C1238      C1686   1.478       .  S
N1239      N1245   1.311       .  A
N1239      N1240   1.335       .  A
N1239     Mn1269   2.240       .  S
N1240      C1248   1.368       .  A
N1241      N1242   1.316       .  A
N1241      N1243   1.313       .  A
N1241     Mn1247   2.170       .  S
N1242      C1249   1.346       .  A
N1243      N1244   1.330       .  A
N1243     Mn1269   2.245       .  S
N1244      C1249   1.362       .  A
N1245      N1246   1.303       .  A
N1245     Mn1247   2.142       .  S
N1246      C1248   1.340       .  A
Mn1247    Cl1271   2.496       .  S
C1248      C1699   1.494       .  S
C1249      C1709   1.482       .  S
N1250      N1251   1.336       .  A
N1250      N1256   1.318       .  A
N1250     Mn1258   2.258       .  S
N1251      C1259   1.367       .  A
N1252      N1254   1.323       .  A
N1252      N1253   1.326       .  A
N1252     Mn1270   2.233       .  S
N1253      C1260   1.357       .  A
N1254      N1255   1.320       .  A
N1254     Mn1258   2.202       .  S
N1255      C1260   1.345       .  A
N1256      N1257   1.308       .  A
N1256     Mn1270   2.184       .  S
N1257      C1259   1.343       .  A
Mn1258    Cl1271   2.589       .  S
C1259      C1679   1.495       .  S
C1260      C1656   1.480       .  S
N1261      N1262   1.317       .  A
N1261      N1267   1.324       .  A
N1261     Mn1269   2.204       .  S
N1262      C1272   1.345       .  A
N1263      N1264   1.315       .  A
N1263      N1265   1.319       .  A
N1263     Mn1270   2.196       .  S
N1264      C1273   1.344       .  A
N1265      N1266   1.331       .  A
N1265     Mn1269   2.242       .  S
N1266      C1273   1.362       .  A
N1267      N1268   1.327       .  A
N1267     Mn1270   2.236       .  S
N1268      C1272   1.357       .  A
Mn1269    Cl1271   2.590       .  S
Mn1270    Cl1271   2.509       .  S
C1272      C1646   1.483       .  S
C1273      C1666   1.482       .  S
N1274      N1275   1.333       .  A
N1274      N1280   1.313       .  A
N1274     Mn1303   2.251       .  S
N1275      C1282   1.368       .  A
N1276      N1278   1.315       .  A
N1276      N1277   1.314       .  A
N1276     Mn1292   2.172       .  S
N1277      C1283   1.345       .  A
N1278      N1279   1.327       .  A
N1278     Mn1303   2.222       .  S
N1279      C1283   1.357       .  A
N1280      N1281   1.303       .  A
N1280     Mn1292   2.137       .  S
N1281      C1282   1.339       .  A
C1282      C1716   1.487       .  S
C1283      C1626   1.467       .  S
N1284      N1290   1.312       .  A
N1284      N1285   1.328       .  A
N1284     Mn1314   2.221       .  S
N1285      C1293   1.359       .  A
N1286      N1287   1.317       .  A
N1286      N1288   1.316       .  A
N1286     Mn1292   2.194       .  S
N1287      C1294   1.348       .  A
N1288      N1289   1.332       .  A
N1288     Mn1314   2.252       .  S
N1289      C1294   1.364       .  A
N1290      N1291   1.310       .  A
N1290     Mn1292   2.145       .  S
N1291      C1293   1.341       .  A
Mn1292    Cl1316   2.488       .  S
C1293      C1639   1.463       .  S
C1294      C1739   1.492       .  S
N1295      N1296   1.336       .  A
N1295      N1301   1.314       .  A
N1295     Mn1303   2.246       .  S
N1296      C1304   1.369       .  A
N1297      N1299   1.324       .  A
N1297      N1298   1.324       .  A
N1297     Mn1315   2.224       .  S
N1298      C1305   1.354       .  A
N1299      N1300   1.324       .  A
N1299     Mn1303   2.219       .  S
N1300      C1305   1.349       .  A
N1301      N1302   1.303       .  A
N1301     Mn1315   2.153       .  S
N1302      C1304   1.339       .  A
Mn1303    Cl1316   2.598       .  S
C1304      C1616   1.490       .  S
C1305      C1599   1.489       .  S
N1306      N1307   1.320       .  A
N1306      N1312   1.323       .  A
N1306     Mn1314   2.198       .  S
N1307      C1317   1.346       .  A
N1308      N1309   1.314       .  A
N1308      N1310   1.317       .  A
N1308     Mn1315   2.184       .  S
N1309      C1318   1.343       .  A
N1310      N1311   1.330       .  A
N1310     Mn1314   2.241       .  S
N1311      C1318   1.363       .  A
N1312      N1313   1.324       .  A
N1312     Mn1315   2.216       .  S
N1313      C1317   1.353       .  A
Mn1314    Cl1316   2.592       .  S
Mn1315    Cl1316   2.494       .  S
C1317      C1589   1.484       .  S
C1318      C1606   1.476       .  S
C1319      C1320   1.377       .  D
C1319      C1566   1.491       .  S
C1319      C1576   1.491       .  S
C1320      C1629   1.508       .  S
C1320      C1696   1.502       .  S
C1321      C1636   1.504       .  S
C1321      C1689   1.499       .  S
C1322      C1549   1.504       .  S
C1322      C1556   1.511       .  S
N1323      N1324   1.322       .  A
N1323      N1329   1.310       .  A
N1323     Mn1352   2.203       .  S
N1324      C1331   1.358       .  A
N1325      N1327   1.310       .  A
N1325      N1326   1.304       .  A
N1325     Mn1341   2.130       .  S
N1326      C1332   1.338       .  A
N1327      N1328   1.329       .  A
N1327     Mn1352   2.207       .  S
N1328      C1332   1.360       .  A
N1329      N1330   1.310       .  A
N1329     Mn1341   2.140       .  S
N1330      C1331   1.343       .  A
C1331      C1569   1.468       .  S
C1332      C1536   1.460       .  S
N1333      N1339   1.311       .  A
N1333      N1334   1.333       .  A
N1333     Mn1363   2.238       .  S
N1334      C1342   1.365       .  A
N1335      N1336   1.311       .  A
N1335      N1337   1.311       .  A
N1335     Mn1341   2.170       .  S
N1336      C1343   1.347       .  A
N1337      N1338   1.324       .  A
N1337     Mn1363   2.198       .  S
N1338      C1343   1.358       .  A
N1339      N1340   1.304       .  A
N1339     Mn1341   2.129       .  S
N1340      C1342   1.334       .  A
Mn1341    Cl1365   2.489       .  S
C1342      C1526   1.477       .  S
C1343      C1546   1.474       .  S
N1344      N1345   1.323       .  A
N1344      N1350   1.317       .  A
N1344     Mn1352   2.210       .  S
N1345      C1353   1.359       .  A
N1346      N1348   1.318       .  A
N1346      N1347   1.338       .  A
N1346     Mn1364   2.284       .  S
N1347      C1354   1.374       .  A
N1348      N1349   1.305       .  A
N1348     Mn1352   2.151       .  S
N1349      C1354   1.333       .  A
N1350      N1351   1.316       .  A
N1350     Mn1364   2.206       .  S
N1351      C1353   1.349       .  A
Mn1352    Cl1365   2.556       .  S
C1353      C1496   1.487       .  S
C1354      C1509   1.500       .  S
N1355      N1356   1.312       .  A
N1355      N1361   1.321       .  A
N1355     Mn1363   2.182       .  S
N1356      C1366   1.341       .  A
N1357      N1358   1.320       .  A
N1357      N1359   1.321       .  A
N1357     Mn1364   2.226       .  S
N1358      C1367   1.352       .  A
N1359      N1360   1.323       .  A
N1359     Mn1363   2.209       .  S
N1360      C1367   1.354       .  A
N1361      N1362   1.334       .  A
N1361     Mn1364   2.263       .  S
N1362      C1366   1.366       .  A
Mn1363    Cl1365   2.568       .  S
Mn1364    Cl1365   2.552       .  S
C1366      C1519   1.487   1_556  S
C1367      C1486   1.480       .  S
N1368      N1369   1.321       .  A
N1368      N1374   1.312       .  A
N1368     Mn1397   2.193       .  S
N1369      C1376   1.352       .  A
N1370      N1372   1.310       .  A
N1370      N1371   1.306       .  A
N1370     Mn1386   2.131       .  S
N1371      C1377   1.337       .  A
N1372      N1373   1.331       .  A
N1372     Mn1397   2.223       .  S
N1373      C1377   1.364       .  A
N1374      N1375   1.313       .  A
N1374     Mn1386   2.163       .  S
N1375      C1376   1.346       .  A
C1376      C1559   1.451       .  S
C1377      C1479   1.468       .  S
N1378      N1384   1.310       .  A
N1378      N1379   1.330       .  A
N1378     Mn1408   2.219       .  S
N1379      C1387   1.364       .  A
N1380      N1381   1.310       .  A
N1380      N1382   1.312       .  A
N1380     Mn1386   2.158       .  S
N1381      C1388   1.345       .  A
N1382      N1383   1.324       .  A
N1382     Mn1408   2.203       .  S
N1383      C1388   1.356       .  A
N1384      N1385   1.300       .  A
N1384     Mn1386   2.120       .  S
N1385      C1387   1.336       .  A
Mn1386    Cl1410   2.491       .  S
C1387      C1469   1.473       .  S
C1388      C1579   1.456       .  S
N1389      N1390   1.321       .  A
N1389      N1395   1.317       .  A
N1389     Mn1397   2.205       .  S
N1390      C1398   1.356       .  A
N1391      N1393   1.318       .  A
N1391      N1392   1.337       .  A
N1391     Mn1409   2.273       .  S
N1392      C1399   1.372       .  A
N1393      N1394   1.307       .  A
N1393     Mn1397   2.162       .  S
N1394      C1399   1.338       .  A
N1395      N1396   1.316       .  A
N1395     Mn1409   2.194       .  S
N1396      C1398   1.349       .  A
Mn1397    Cl1410   2.554       .  S
C1398      C1436   1.481       .  S
C1399      C1446   1.503   1_556  S
N1400      N1401   1.313       .  A
N1400      N1406   1.321       .  A
N1400     Mn1408   2.178       .  S
N1401      C1411   1.341       .  A
N1402      N1403   1.321       .  A
N1402      N1404   1.320       .  A
N1402     Mn1409   2.221       .  S
N1403      C1412   1.350       .  A
N1404      N1405   1.323       .  A
N1404     Mn1408   2.207       .  S
N1405      C1412   1.354       .  A
N1406      N1407   1.332       .  A
N1406     Mn1409   2.261       .  S
N1407      C1411   1.364       .  A
Mn1408    Cl1410   2.569       .  S
Mn1409    Cl1410   2.548       .  S
C1411      C1456   1.478       .  S
C1412      C1426   1.474       .  S
C1413      C1414   1.368       .  D
C1413      C1619   1.494       .  S
C1413      C1669   1.520   1_655  S
C1414      C1466   1.479   1_655  S
C1414      C1539   1.486       .  S
C1415      C1609   1.517       .  S
C1415      C1676   1.506   1_655  S
C1416      C1476   1.485   1_654  S
C1416      C1529   1.507       .  S
C1417      C1418   1.382       .  D
C1417      C1586   1.510       .  S
C1417      C1659   1.503   1_655  S
C1418      C1596   1.509       .  S
C1418      C1649   1.506   1_655  S
C1419      C1420   1.391       .  D
C1419      C1449   1.511       .  S
C1419      C1516   1.508       .  S
C1420      C1459   1.509       .  S
C1420      C1506   1.508       .  S
C1421      C1422   1.378   1_565  D
C1421      C1919   1.520   1_655  S
C1421      C2006   1.504       .  S
C1423      C1424   1.382   1_545  D
C1423      C1429   1.505   1_655  S
C1423      C1499   1.511       .  S
C1424      C1909   1.502   1_655  S
C1424      C2019   1.515       .  S
C1425      C1426   1.395       .  A
C1425      C1430   1.399       .  A
C1425      H1432   1.084       .  S
C1426      C1427   1.407       .  A
C1427      C1428   1.402       .  A
C1427     Br1434   1.913       .  S
C1428      C1429   1.406       .  A
C1428      H1433   1.084       .  S
C1429      C1430   1.418       .  A
C1430     Br1431   1.903       .  S
C1435      C1436   1.409       .  A
C1435      C1440   1.397       .  A
C1435      H1442   1.083       .  S
C1436      C1437   1.409   1_556  A
C1437      C1438   1.393       .  A
C1437     Br1444   1.922       .  S
C1438      C1439   1.404   1_554  A
C1439      C1440   1.410       .  A
C1440     Br1441   1.921   1_545  S
C1445      C1450   1.396       .  A
C1445      H1452   1.082       .  S
C1446      C1447   1.407       .  A
C1447     Br1454   1.916   1_554  S
C1448      C1449   1.419       .  A
C1448      H1453   1.082       .  S
C1449      C1450   1.413       .  A
C1450     Br1451   1.919       .  S
C1455      C1456   1.410       .  A
C1455      C1460   1.414       .  A
C1455      H1462   1.083       .  S
C1456      C1457   1.403       .  A
C1457      C1458   1.392       .  A
C1457     Br1464   1.922       .  S
C1458      C1459   1.413       .  A
C1458      H1463   1.082       .  S
C1459      C1460   1.413       .  A
C1460     Br1461   1.915       .  S
C1465      C1466   1.413       .  A
C1465      C1470   1.399       .  A
C1465      H1472   1.083       .  S
C1466      C1467   1.401       .  A
C1467      C1468   1.379       .  A
C1467     Br1474   1.921       .  S
C1468      C1469   1.411       .  A
C1468      H1473   1.083       .  S
C1469      C1470   1.403       .  A
C1470     Br1471   1.916       .  S
C1475      C1476   1.407   1_554  A
C1475      C1480   1.407       .  A
C1475      H1482   1.083       .  S
C1476      C1477   1.405       .  A
C1477      C1478   1.386       .  A
C1477     Br1484   1.918   1_455  S
C1478      C1479   1.402       .  A
C1478      H1483   1.084       .  S
C1479      C1480   1.409   1_556  A
C1480     Br1481   1.916       .  S
C1485      C1486   1.398   1_554  A
C1486      C1487   1.406       .  A
C1487      C1488   1.394       .  A
C1487     Br1494   1.901       .  S
C1488      C1489   1.399       .  A
C1488      H1493   1.083       .  S
C1490     Br1491   1.918       .  S
C1495      C1496   1.400       .  A
C1495      C1500   1.399       .  A
C1495      H1502   1.083       .  S
C1496      C1497   1.415       .  A
C1497      C1498   1.398       .  A
C1497     Br1504   1.923       .  S
C1498      C1499   1.407       .  A
C1498      H1503   1.081   1_545  S
C1499      C1500   1.420       .  A
C1500     Br1501   1.915       .  S
C1505      C1506   1.395       .  A
C1505      C1510   1.395       .  A
C1505      H1512   1.077       .  S
C1506      C1507   1.419       .  A
C1507      C1508   1.411       .  A
C1507     Br1514   1.915       .  S
C1508      C1509   1.403       .  A
C1508      H1513   1.083       .  S
C1509      C1510   1.428       .  A
C1510     Br1511   1.927       .  S
C1515      C1516   1.411       .  A
C1515      C1520   1.414       .  A
C1515      H1522   1.083       .  S
C1516      C1517   1.415       .  A
C1517      C1518   1.395       .  A
C1517     Br1524   1.915       .  S
C1525      C1526   1.396   1_554  A
C1525      C1530   1.404       .  A
C1526      C1527   1.417       .  A
C1527      C1528   1.388       .  A
C1527     Br1534   1.927       .  S
C1528      C1529   1.400   1_556  A
C1528      H1533   1.081       .  S
C1529      C1530   1.423       .  A
C1535      C1536   1.402       .  A
C1535      C1540   1.406       .  A
C1535      H1542   1.083       .  S
C1536      C1537   1.403       .  A
C1537      C1538   1.382       .  A
C1537     Br1544   1.925       .  S
C1538      C1539   1.402       .  A
C1538      H1543   1.082       .  S
C1539      C1540   1.413       .  A
C1540     Br1541   1.911       .  S
C1545      C1546   1.402   1_554  A
C1545      C1550   1.401       .  A
C1545      H1552   1.083       .  S
C1546      C1547   1.409       .  A
C1547      C1548   1.388       .  A
C1547     Br1554   1.922       .  S
C1548      C1549   1.404       .  A
C1548      H1553   1.081       .  S
C1549      C1550   1.420   1_556  A
C1550     Br1551   1.923       .  S
C1555      C1556   1.412   1_554  A
C1555      C1560   1.389       .  A
C1555      H1562   1.063       .  S
C1556      C1557   1.423       .  A
C1557      C1558   1.393       .  A
C1557     Br1564   1.927       .  S
C1558      C1559   1.390       .  A
C1558      H1563   1.077       .  S
C1559      C1560   1.391   1_556  A
C1560     Br1561   1.920       .  S
C1565      C1566   1.399       .  A
C1565      C1570   1.386       .  A
C1565      H1572   1.083       .  S
C1566      C1567   1.416       .  A
C1567      C1568   1.393       .  A
C1567     Br1574   1.920       .  S
C1568      C1569   1.399       .  A
C1568      H1573   1.081       .  S
C1569      C1570   1.413       .  A
C1570     Br1571   1.918       .  S
C1575      C1576   1.402       .  A
C1575      C1580   1.384       .  A
C1575      H1582   1.083       .  S
C1576      C1577   1.416       .  A
C1577      C1578   1.401       .  A
C1577     Br1584   1.894       .  S
C1578      C1579   1.394       .  A
C1578      H1583   1.083       .  S
C1579      C1580   1.397       .  A
C1580     Br1581   1.904       .  S
C1585      C1586   1.415       .  A
C1585      H1592   1.080       .  S
C1586      C1587   1.417       .  A
C1587      C1588   1.406       .  A
C1587     Br1594   1.919       .  S
C1588      H1593   1.084       .  S
C1589      C1590   1.402       .  A
C1590     Br1591   1.919       .  S
C1595      C1596   1.408       .  A
C1595      C1600   1.396       .  A
C1595      H1602   1.084       .  S
C1596      C1597   1.416       .  A
C1597      C1598   1.412       .  A
C1597     Br1604   1.916       .  S
C1598      C1599   1.407       .  A
C1598      H1603   1.083       .  S
C1599      C1600   1.411       .  A
C1600     Br1601   1.923       .  S
C1605      C1606   1.397       .  A
C1605      C1610   1.404       .  A
C1605      H1612   1.084       .  S
C1606      C1607   1.405       .  A
C1607      C1608   1.401       .  A
C1607     Br1614   1.918       .  S
C1608      C1609   1.411       .  A
C1608      H1613   1.082       .  S
C1609      C1610   1.420       .  A
C1610     Br1611   1.907       .  S
C1615      C1616   1.407       .  A
C1615      C1620   1.381       .  A
C1615      H1622   1.082       .  S
C1616      C1617   1.412       .  A
C1617      C1618   1.417       .  A
C1617     Br1624   1.914       .  S
C1618      C1619   1.414       .  A
C1618      H1623   1.083       .  S
C1619      C1620   1.396       .  A
C1620     Br1621   1.910       .  S
C1625      C1626   1.398       .  A
C1625      C1630   1.398       .  A
C1625      H1632   1.084       .  S
C1626      C1627   1.405       .  A
C1627      C1628   1.399       .  A
C1627     Br1634   1.918       .  S
C1628      C1629   1.407       .  A
C1628      H1633   1.083       .  S
C1629      C1630   1.419       .  A
C1630     Br1631   1.914       .  S
C1635      C1636   1.409       .  A
C1635      C1640   1.402       .  A
C1636      C1637   1.418       .  A
C1637      C1638   1.392       .  A
C1637     Br1644   1.909       .  S
C1638      C1639   1.396       .  A
C1638      H1643   1.085       .  S
C1639      C1640   1.404       .  A
C1640     Br1641   1.916       .  S
C1645      C1646   1.399       .  A
C1645      C1650   1.403       .  A
C1645      H1652   1.083       .  S
C1646      C1647   1.417       .  A
C1647      C1648   1.399       .  A
C1647     Br1654   1.924       .  S
C1648      C1649   1.404       .  A
C1648      H1653   1.081       .  S
C1649      C1650   1.416       .  A
C1650     Br1651   1.916       .  S
C1655      C1660   1.398       .  A
C1655      H1662   1.084       .  S
C1656      C1657   1.407       .  A
C1657     Br1664   1.914       .  S
C1658      C1659   1.409       .  A
C1658      H1663   1.083       .  S
C1659      C1660   1.411       .  A
C1660     Br1661   1.917       .  S
C1665      C1666   1.402       .  A
C1665      C1670   1.408       .  A
C1665      H1672   1.084       .  S
C1666      C1667   1.406       .  A
C1667      C1668   1.399       .  A
C1667     Br1674   1.916       .  S
C1668      C1669   1.411       .  A
C1668      H1673   1.082       .  S
C1669      C1670   1.423       .  A
C1670     Br1671   1.925       .  S
C1675      C1676   1.389       .  A
C1675      C1680   1.389       .  A
C1675      H1682   1.078       .  S
C1676      C1677   1.421       .  A
C1677      C1678   1.418       .  A
C1678      C1679   1.405       .  A
C1678      H1683   1.083       .  S
C1679      C1680   1.410       .  A
C1680     Br1681   1.896       .  S
C1685      C1686   1.396       .  A
C1685      C1690   1.384       .  A
C1685      H1692   1.085       .  S
C1686      C1687   1.412       .  A
C1687      C1688   1.415       .  A
C1687     Br1694   1.914       .  S
C1688      C1689   1.410       .  A
C1688      H1693   1.082       .  S
C1689      C1690   1.404       .  A
C1690     Br1691   1.891       .  S
C1695      C1696   1.415       .  A
C1695      C1700   1.414       .  A
C1695      H1702   1.082       .  S
C1696      C1697   1.410       .  A
C1697      C1698   1.381       .  A
C1697     Br1704   1.926       .  S
C1698      C1699   1.407       .  A
C1698      H1703   1.082       .  S
C1699      C1700   1.411       .  A
C1700     Br1701   1.915       .  S
C1705      C1706   1.408       .  A
C1705      C1710   1.401       .  A
C1705      H1712   1.078       .  S
C1706      C1707   1.417       .  A
C1707      C1708   1.408       .  A
C1707     Br1714   1.915       .  S
C1708      C1709   1.402       .  A
C1708      H1713   1.083       .  S
C1709      C1710   1.407       .  A
C1710     Br1711   1.918       .  S
C1715      C1716   1.408       .  A
C1715      C1720   1.383       .  A
C1715      H1722   1.081       .  S
C1716      C1717   1.406       .  A
C1717      C1718   1.408       .  A
C1717     Br1724   1.916       .  S
C1718      C1719   1.413       .  A
C1718      H1723   1.070       .  S
C1719      C1720   1.400       .  A
C1720     Br1721   1.912       .  S
C1725      C1726   1.408       .  A
C1725      C1730   1.399       .  A
C1725      H1732   1.075       .  S
C1726      C1727   1.411       .  A
C1727      C1728   1.398       .  A
C1727     Br1734   1.916       .  S
C1728      C1729   1.404       .  A
C1728      H1733   1.083       .  S
C1729      C1730   1.404       .  A
C1730     Br1731   1.918       .  S
C1735      C1736   1.405       .  A
C1735      C1740   1.401       .  A
C1735      H1742   1.083       .  S
C1736      C1737   1.419       .  A
C1737      C1738   1.412       .  A
C1737     Br1744   1.905       .  S
C1738      C1739   1.402       .  A
C1738      H1743   1.083       .  S
C1739      C1740   1.408       .  A
C1740     Br1741   1.914       .  S
C1745      C1746   1.405   1_554  A
C1745      C1750   1.407       .  A
C1745      H1752   1.083       .  S
C1746      C1747   1.411       .  A
C1747      C1748   1.396       .  A
C1747     Br1754   1.925       .  S
C1748      C1749   1.409       .  A
C1748      H1753   1.078       .  S
C1749      C1750   1.421   1_556  A
C1750     Br1751   1.920       .  S
C1755      C1756   1.404       .  A
C1755      C1760   1.408       .  A
C1755      H1762   1.083       .  S
C1756      C1757   1.407       .  A
C1757      C1758   1.385       .  A
C1757     Br1764   1.892       .  S
C1758      C1759   1.392       .  A
C1758      H1763   1.078       .  S
C1759      C1760   1.416       .  A
C1760     Br1761   1.914       .  S
C1765      C1766   1.402       .  A
C1765      C1770   1.395       .  A
C1765      H1772   1.084       .  S
C1766      C1767   1.412       .  A
C1767      C1768   1.418       .  A
C1767     Br1774   1.914       .  S
C1768      C1769   1.414       .  A
C1768      H1773   1.082       .  S
C1769      C1770   1.416       .  A
C1770     Br1771   1.916       .  S
C1775      C1780   1.408       .  A
C1776      C1777   1.427       .  A
C1777     Br1784   1.930       .  S
C1778      C1779   1.396       .  A
C1778      H1783   1.073       .  S
C1779      C1780   1.422       .  A
C1780     Br1781   1.916       .  S
C1785      C1786   1.411       .  A
C1785      C1790   1.384       .  A
C1785      H1792   1.082       .  S
C1786      C1787   1.407   1_556  A
C1787      C1788   1.404       .  A
C1788      C1789   1.411       .  A
C1789      C1790   1.405   1_554  A
C1790     Br1791   1.924       .  S
C1795      C1796   1.399       .  A
C1795      C1800   1.404       .  A
C1795      H1802   1.083       .  S
C1796      C1797   1.420       .  A
C1797      C1798   1.379       .  A
C1797     Br1804   1.931       .  S
C1798      C1799   1.396       .  A
C1798      H1803   1.082       .  S
C1799      C1800   1.419       .  A
C1800     Br1801   1.913       .  S
C1805      C1806   1.406       .  A
C1805      C1810   1.408       .  A
C1805      H1812   1.079       .  S
C1806      C1807   1.410       .  A
C1807      C1808   1.394       .  A
C1807     Br1814   1.905       .  S
C1808      C1809   1.401       .  A
C1808      H1813   1.084       .  S
C1809      C1810   1.413       .  A
C1810     Br1811   1.917       .  S
C1815      C1816   1.396       .  A
C1815      C1820   1.397       .  A
C1815      H1822   1.084       .  S
C1816      C1817   1.401   1_556  A
C1817      C1818   1.399       .  A
C1818      C1819   1.410   1_554  A
C1819      C1820   1.421       .  A
C1820     Br1821   1.917       .  S
C1825      C1830   1.416       .  A
C1825      H1832   1.083       .  S
C1826      C1827   1.404       .  A
C1827     Br1834   1.921   1_554  S
C1828      C1829   1.414       .  A
C1828      H1833   1.084       .  S
C1829      C1830   1.415       .  A
C1830     Br1831   1.916       .  S
C1835      C1836   1.412       .  A
C1835      C1840   1.392       .  A
C1835      H1842   1.082       .  S
C1836      C1837   1.405       .  A
C1837      C1838   1.408       .  A
C1837     Br1844   1.916       .  S
C1838      C1839   1.418       .  A
C1838      H1843   1.082       .  S
C1839      C1840   1.412       .  A
C1840     Br1841   1.919       .  S
C1845      C1846   1.403       .  A
C1845      C1850   1.407       .  A
C1845      H1852   1.083       .  S
C1846      C1847   1.392       .  A
C1847      C1848   1.385       .  A
C1847     Br1854   1.923       .  S
C1848      C1849   1.415       .  A
C1848      H1853   1.083       .  S
C1849      C1850   1.419       .  A
C1850     Br1851   1.913       .  S
C1855      C1856   1.403   1_554  A
C1855      C1860   1.407       .  A
C1855      H1862   1.083       .  S
C1856      C1857   1.419       .  A
C1857      C1858   1.379       .  A
C1857     Br1864   1.918       .  S
C1858      C1859   1.389   1_556  A
C1858      H1863   1.081       .  S
C1859      C1860   1.409       .  A
C1865      C1866   1.392       .  A
C1865      C1870   1.383       .  A
C1865      H1872   1.077       .  S
C1866      C1867   1.414   1_556  A
C1867      C1868   1.402       .  A
C1868      C1869   1.402   1_554  A
C1868      H1873   1.083       .  S
C1869      C1870   1.408       .  A
C1870     Br1871   1.907       .  S
C1875      C1876   1.403   1_554  A
C1875      C1880   1.402       .  A
C1875      H1882   1.080       .  S
C1876      C1877   1.412       .  A
C1877      C1878   1.389       .  A
C1877     Br1884   1.929       .  S
C1878      C1879   1.405       .  A
C1878      H1883   1.083       .  S
C1879      C1880   1.414   1_556  A
C1880     Br1881   1.918       .  S
C1885      C1890   1.411       .  A
C1885      H1892   1.084       .  S
C1886      C1887   1.404       .  A
C1887     Br1894   1.917       .  S
C1888      C1889   1.414       .  A
C1888      H1893   1.082       .  S
C1889      C1890   1.419       .  A
C1890     Br1891   1.918       .  S
C1895      C1896   1.406       .  A
C1895      C1900   1.408       .  A
C1895      H1902   1.083       .  S
C1896      C1897   1.410       .  A
C1897      C1898   1.392       .  A
C1897     Br1904   1.924       .  S
C1898      C1899   1.407       .  A
C1898      H1903   1.083       .  S
C1899      C1900   1.414       .  A
C1900     Br1901   1.916       .  S
C1905      C1906   1.402       .  A
C1905      C1910   1.377       .  A
C1905      H1912   1.085       .  S
C1906      C1907   1.412       .  A
C1907      C1908   1.420       .  A
C1907     Br1914   1.913       .  S
C1908      C1909   1.417       .  A
C1908      H1913   1.083       .  S
C1909      C1910   1.402       .  A
C1910     Br1911   1.903       .  S
C1915      C1916   1.402       .  A
C1915      C1920   1.403       .  A
C1915      H1922   1.084       .  S
C1916      C1917   1.407       .  A
C1917      C1918   1.409       .  A
C1917     Br1924   1.917       .  S
C1918      C1919   1.414       .  A
C1918      H1923   1.079       .  S
C1919      C1920   1.415       .  A
C1920     Br1921   1.906   1_565  S
C1925      C1926   1.414       .  A
C1925      C1930   1.402       .  A
C1925      H1932   1.081       .  S
C1926      C1927   1.422       .  A
C1927      C1928   1.401       .  A
C1928      C1929   1.398       .  A
C1928      H1933   1.084       .  S
C1929      C1930   1.401       .  A
C1930     Br1931   1.913       .  S
C1935      C1936   1.401       .  A
C1935      C1940   1.406       .  A
C1935      H1942   1.083       .  S
C1936      C1937   1.402       .  A
C1937      C1938   1.394       .  A
C1937     Br1944   1.909       .  S
C1938      C1939   1.407       .  A
C1938      H1943   1.083       .  S
C1939      C1940   1.417       .  A
C1940     Br1941   1.917       .  S
C1945      C1946   1.416       .  A
C1945      C1950   1.394       .  A
C1945      H1952   1.057       .  S
C1946      C1947   1.416       .  A
C1947      C1948   1.391       .  A
C1947     Br1954   1.928   1_455  S
C1948      C1949   1.408       .  A
C1948      H1953   1.083       .  S
C1949      C1950   1.396       .  A
C1950     Br1951   1.921       .  S
C1955      C1956   1.410       .  A
C1955      C1960   1.411       .  A
C1955      H1962   1.083       .  S
C1956      C1957   1.404       .  A
C1957      C1958   1.392       .  A
C1957     Br1964   1.915       .  S
C1958      C1959   1.407       .  A
C1958      H1963   1.084       .  S
C1959      C1960   1.409       .  A
C1960     Br1961   1.915       .  S
C1965      C1966   1.409       .  A
C1965      C1970   1.401       .  A
C1965      H1972   1.083       .  S
C1966      C1967   1.411       .  A
C1967      C1968   1.390       .  A
C1967     Br1974   1.922       .  S
C1968      C1969   1.405       .  A
C1968      H1973   1.083       .  S
C1969      C1970   1.411       .  A
C1970     Br1971   1.918       .  S
C1975      C1976   1.407       .  A
C1975      C1980   1.399       .  A
C1975      H1982   1.076       .  S
C1976      C1977   1.406       .  A
C1977      C1978   1.384       .  A
C1977     Br1984   1.899   1_455  S
C1978      C1979   1.395       .  A
C1978      H1983   1.085       .  S
C1979      C1980   1.402       .  A
C1980     Br1981   1.916       .  S
C1985      C1986   1.401       .  A
C1985      C1990   1.407       .  A
C1985      H1992   1.083       .  S
C1986      C1987   1.417       .  A
C1987      C1988   1.407       .  A
C1987     Br1994   1.920       .  S
C1988      C1989   1.405       .  A
C1988      H1993   1.083       .  S
C1989      C1990   1.416       .  A
C1990     Br1991   1.914       .  S
C1995      C1996   1.408       .  A
C1995      C2000   1.408       .  A
C1995      H2002   1.083       .  S
C1996      C1997   1.410       .  A
C1997     Br2004   1.913       .  S
C1998      C1999   1.401       .  A
C1998      H2003   1.084       .  S
C2005      C2006   1.412       .  A
C2005      C2010   1.413       .  A
C2006      C2007   1.406       .  A
C2007      C2008   1.389       .  A
C2007     Br2014   1.893       .  S
C2008      C2009   1.396       .  A
C2008      H2013   1.082       .  S
C2009      C2010   1.409       .  A
C2015      C2016   1.401       .  A
C2015      C2020   1.405       .  A
C2015      H2022   1.083       .  S
C2016      C2017   1.407       .  A
C2017      C2018   1.404       .  A
C2017     Br2024   1.916       .  S
C2018      C2019   1.411       .  A
C2018      H2023   1.083       .  S
C2019      C2020   1.417       .  A
C2020     Br2021   1.917       .  S
C2025      C2026   1.412       .  A
C2025      C2030   1.422       .  A
C2025      H2032   1.083       .  S
C2026      C2027   1.423       .  A
C2027      C2028   1.378       .  A
C2027     Br2034   1.937       .  S
C2028      C2029   1.397       .  A
C2028      H2033   1.081       .  S
C2029      C2030   1.421       .  A
C2030     Br2031   1.915       .  S
C2035      C2036   1.413       .  A
C2035      C2040   1.414       .  A
C2035      H2042   1.082       .  S
C2036      C2037   1.399       .  A
C2037      C2038   1.394       .  A
C2037     Br2044   1.917       .  S
C2038      C2039   1.413       .  A
C2038      H2043   1.082       .  S
C2039      C2040   1.412       .  A
C2040     Br2041   1.915       .  S
C2045      C2046   1.412       .  A
C2045      C2050   1.398       .  A
C2045      H2052   1.074       .  S
C2046      C2047   1.418       .  A
C2047      C2048   1.401       .  A
C2048      C2049   1.400       .  A
C2048      H2053   1.083       .  S
C2049      C2050   1.399       .  A
C2050     Br2051   1.917       .  S
C2055      C2056   1.407       .  A
C2055      C2060   1.396       .  A
C2055      H2062   1.083       .  S
C2056      C2057   1.421       .  A
C2057      C2058   1.399       .  A
C2057     Br2064   1.917       .  S
C2058      C2059   1.397       .  A
C2058      H2063   1.084       .  S
C2059      C2060   1.404       .  A
C2060     Br2061   1.913       .  S
