geometry optimzed in LAMMPS
_audit_creation_date              2020-11-30 
_audit_creation_method            'lammps2cif' 
_symmetry_space_group_name_H-M    'P1' 
_symmetry_Int_Tables_number       1 
_symmetry_cell_setting            triclinic 
loop_ 
_symmetry_equiv_pos_as_xyz 
  x,y,z 
_cell_length_a                    44.48852292 
_cell_length_b                    44.557495791102966 
_cell_length_c                    61.58485799113017 
_cell_angle_alpha                 90.1726847030642 
_cell_angle_beta                  89.70983979646944 
_cell_angle_gamma                 119.57550980249681 
loop_ 
_atom_site_label 
_atom_site_type_symbol 
_atom_site_fract_x 
_atom_site_fract_y 
_atom_site_fract_z 
_atom_site_charge 
C1          C  0.06858595  0.41546050  0.90867203     0.86000
C2          C  0.10263662  0.44264050  0.91983639    -0.54300
C3          C  0.12365627  0.43051327  0.92799739     0.08900
C4          C  0.10905674  0.39157167  0.92157537     0.19900
C5          C  0.08188310  0.40167899  0.89074912    -0.55000
C6          C  0.10499326  0.39183235  0.89632626     0.09000
C7          C  0.05121641  0.38563384  0.92473797    -0.54500
C8          C  0.07081953  0.37124728  0.93096030     0.09600
H9          H  0.11158433  0.46994620  0.91872023     0.14100
H10         H  0.12529410  0.38058688  0.92700463    -0.00200
H11         H  0.07623869  0.40337262  0.87377374     0.14400
H12         H  0.02411192  0.37449314  0.92911207     0.14200
C13         C  0.33924424  0.43747604  0.91056371     0.86000
C14         C  0.32878894  0.40465538  0.92458141    -0.54300
C15         C  0.29355493  0.38187536  0.92719925     0.08900
C16         C  0.27256586  0.39941121  0.91811790     0.19900
C17         C  0.31749269  0.42321657  0.89043601    -0.55000
C18         C  0.28316238  0.40492511  0.89359578     0.09000
C19         C  0.32322781  0.45599815  0.92280356    -0.54500
C20         C  0.28871122  0.43694339  0.92789741     0.09600
H21         H  0.34788841  0.40089567  0.93253186     0.14100
H22         H  0.24469543  0.38557710  0.92166514    -0.00200
H23         H  0.32852632  0.42835523  0.87413002     0.14400
H24         H  0.33866562  0.48274974  0.92721626     0.14200
C25         C  0.08299569  0.16826400  0.90406708     0.86000
C26         C  0.05693145  0.17631208  0.91584037    -0.54300
C27         C  0.06931271  0.20994131  0.92278435     0.08900
C28         C  0.10832769  0.23317726  0.91534724     0.19900
C29         C  0.09340077  0.19245323  0.88519610    -0.55000
C30         C  0.10698631  0.22603904  0.89010596     0.09000
C31         C  0.11556115  0.18283274  0.91806885    -0.54500
C32         C  0.13000557  0.21667262  0.92488891     0.09600
H33         H  0.02955195  0.15869754  0.91439670     0.14100
H34         H  0.11846755  0.26039825  0.92003549    -0.00200
H35         H  0.09013595  0.18361897  0.86840043     0.14400
H36         H  0.12788421  0.16741292  0.92047097     0.14200
O37         O  0.16276688  0.39390984  0.75257717    -0.82300
C38         C  0.14195412  0.28210868  0.80445952     0.97100
O39         O  0.12061672  0.28168069  0.79108798    -0.71400
O40         O  0.12235692  0.33802659  0.80582224    -0.75000
Al41       Al  0.12248342  0.32081136  0.77726857     1.49000
C42         C  0.13753193  0.36942960  0.81143193     0.92300
O43         O  0.21283035  0.39607603  0.80159232    -0.81200
O44         O  0.21656198  0.35028311  0.74928436    -0.74800
Al45       Al  0.18715255  0.39252453  0.77699910     1.90100
O46         O  0.23039650  0.35980981  0.79366297    -0.73900
O47         O  0.16335983  0.29114512  0.75619578    -0.73700
O48         O  0.17381643  0.30170559  0.80100568    -0.79400
O49         O  0.12063134  0.30127075  0.74941585    -0.77600
O50         O  0.16815066  0.34694440  0.77608073    -1.13700
O51         O  0.11250747  0.35279625  0.76311142    -0.72900
C52         C  0.13065532  0.37694809  0.75013052     0.97800
C53         C  0.23023913  0.38200601  0.80637640     0.94200
Al54       Al  0.19415215  0.32716108  0.77507522     1.55600
O55         O  0.15465653  0.39264817  0.79753193    -0.77500
C56         C  0.13777931  0.28636477  0.74469796     0.98400
C57         C  0.22763023  0.38123876  0.74406036     0.93300
O58         O  0.22307115  0.40094861  0.75676775    -0.82800
N59         N  0.29136627  0.00979368  0.95959885    -0.37100
N60         N  0.26617670  0.05489953  0.97733562    -0.57700
N61         N  0.19525352  0.01053145  0.95975606    -0.37100
N62         N  0.21657820  0.45740507  0.94675014    -0.57700
C63         C  0.31273945  0.02556121  0.97668186     0.26500
C64         C  0.29043375  0.47944893  0.95670735     0.26500
C65         C  0.18893361  0.02676583  0.97660643     0.26500
C66         C  0.16338505  0.48246770  0.95300131     0.26500
C67         C  0.29905182  0.07075613  0.98591386     0.35100
C68         C  0.24884758  0.06966712  0.98715613     0.35100
C69         C  0.23625195  0.44659336  0.93549893     0.35100
C70         C  0.18735187  0.44781524  0.93484818     0.35100
C71         C  0.31898417  0.00150385  0.98706819    -0.22400
C72         C  0.32103224  0.48385408  0.96509921    -0.22400
C73         C  0.15606861  0.00397370  0.98465625    -0.22400
C74         C  0.13823259  0.49160866  0.95695449    -0.22400
C75         C  0.30083758  0.09309436  0.00181052    -0.23500
C76         C  0.26989333  0.09144452  0.00281271    -0.23500
C77         C  0.21931204  0.43024027  0.91677432    -0.23500
C78         C  0.18977784  0.43233722  0.91612905    -0.23400
C79         C  0.32477501  0.06036187  0.98361433    -0.18800
C80         C  0.27034568  0.45340587  0.94095275    -0.18800
C81         C  0.15888186  0.45373003  0.93957414    -0.18800
C82         C  0.21294684  0.06054638  0.98532219    -0.18800
H83         H  0.33066492  0.00373337  0.00276669     0.14100
H84         H  0.33147341  0.46652829  0.96382790     0.14100
H85         H  0.14508196  0.00462186  0.00015788     0.14100
H86         H  0.11092426  0.47708128  0.95380322     0.14100
H87         H  0.31936705  0.10485946  0.01438311     0.12400
H88         H  0.26239777  0.10035966  0.01633001     0.12400
H89         H  0.22797178  0.41990058  0.90394614     0.12400
H90         H  0.17394002  0.42656324  0.90229935     0.12400
H91         H  0.28261478  0.02137301  0.94846251     0.25700
H92         H  0.21757731  0.02087025  0.95019527     0.25600
C93         C  0.16242850  0.10074631  0.01766212     0.86000
C94         C  0.16739639  0.07534584  0.00260150    -0.54300
C95         C  0.20074594  0.08578198  0.99542214     0.08900
C96         C  0.22514897  0.12492104  0.00255460     0.19900
C97         C  0.18944483  0.10946465  0.03483412    -0.55000
C98         C  0.22223033  0.12188895  0.02805543     0.09000
C99         C  0.17504859  0.13365320  0.00525011    -0.54500
C100        C  0.20672469  0.14673131  0.99584528     0.09600
H101        H  0.14610705  0.05059114  0.99952320     0.14100
H102        H  0.25180279  0.13681001  0.99605644    -0.00200
H103        H  0.18260444  0.10483851  0.05193207     0.14400
H104        H  0.16029754  0.14707627  0.00546565     0.14200
C105        C  0.41981329  0.35689684  0.00553638     0.86000
C106        C  0.38567733  0.34121690  0.99291875    -0.54300
C107        C  0.36755613  0.30585040  0.99137518     0.08900
C108        C  0.38756460  0.28914950  0.00347634     0.19900
C109        C  0.41075814  0.33872028  0.02734617    -0.55000
C110        C  0.39355735  0.30426120  0.02701445     0.09000
C111        C  0.43989287  0.34213413  0.99328732    -0.54500
C112        C  0.42532895  0.30656544  0.99296017     0.09600
H113        H  0.37669497  0.35698678  0.98520573     0.14100
H114        H  0.37387012  0.26075280  0.00379022    -0.00200
H115        H  0.41755609  0.35249538  0.04273625     0.14400
H116        H  0.46267088  0.35885824  0.98408407     0.14200
C117        C  0.41555775  0.09416600  0.01288058     0.86000
C118        C  0.43595020  0.12681262  0.99981613    -0.54300
C119        C  0.41835236  0.14200060  0.99129634     0.08900
C120        C  0.37951097  0.12265047  0.99999034     0.19900
C121        C  0.39946021  0.10402055  0.03107736    -0.55000
C122        C  0.38191636  0.11990885  0.02519274     0.09000
C123        C  0.38402601  0.07054465  0.99844621    -0.54500
C124        C  0.36239707  0.08342515  0.99280093     0.09600
H125        H  0.46373919  0.13840140  0.99922409     0.14100
H126        H  0.36504099  0.13553326  0.99529359    -0.00200
H127        H  0.40204802  0.09904881  0.04809416     0.14400
H128        H  0.37893394  0.04548653  0.99396733     0.14200
O129        O  0.37862038  0.18232815  0.16805622    -0.82300
C130        C  0.27449968  0.16003748  0.11147232     0.97100
O131        O  0.26909027  0.13929929  0.12677492    -0.71400
O132        O  0.32443543  0.13809647  0.11644448    -0.75000
Al133      Al  0.30574955  0.14056131  0.14307444     1.49000
C134        C  0.35545128  0.15216390  0.11051372     0.92300
O135        O  0.38060740  0.23398077  0.11855713    -0.81200
O136        O  0.32995187  0.23190814  0.17124593    -0.74800
Al137      Al  0.37663806  0.20668222  0.14324000     1.90100
O138        O  0.34379753  0.25043654  0.12782746    -0.73900
O139        O  0.27020227  0.17765812  0.16156488    -0.73700
O140        O  0.28945794  0.19195345  0.11590273    -0.79400
O141        O  0.28466292  0.13915894  0.16975216    -0.77600
O142        O  0.33104958  0.18630923  0.14373652    -1.13700
O143        O  0.33650550  0.13178643  0.15928816    -0.72900
C144        C  0.36111357  0.15049185  0.17171192     0.97800
C145        C  0.36719384  0.25269502  0.11516288     0.94200
Al146      Al  0.30962545  0.21104754  0.14410268     1.55600
O147        O  0.37889471  0.17473126  0.12250485    -0.77500
C148        C  0.26825540  0.15447746  0.17448726     0.98400
C149        C  0.36140766  0.24448138  0.17644761     0.93300
O150        O  0.38208122  0.24140162  0.16361892    -0.82800
N151        N  0.49990094  0.30520597  0.96281359    -0.37100
N152        N  0.04407680  0.27659728  0.94279913    -0.57700
N153        N  0.49492493  0.21111501  0.95657308    -0.37100
N154        N  0.45122109  0.23641990  0.98045449    -0.57700
C155        C  0.02869672  0.32962144  0.95890136     0.26500
C156        C  0.48306964  0.31028825  0.97978532     0.26500
C157        C  0.01431589  0.20011564  0.94533534     0.26500
C158        C  0.46973435  0.18125086  0.96583932     0.26500
C159        C  0.05479888  0.30745059  0.93279470     0.35100
C160        C  0.05383510  0.25805433  0.92984186     0.35100
C161        C  0.43209509  0.25282335  0.98113929     0.35100
C162        C  0.42897372  0.20199041  0.97814021     0.35100
C163        C  0.03326816  0.35292455  0.97512864    -0.22400
C164        C  0.50622653  0.34075914  0.99015177    -0.22400
C165        C  0.00341512  0.16584148  0.94971480    -0.22400
C166        C  0.47883169  0.15599832  0.96191740    -0.22400
C167        C  0.06977928  0.30774240  0.91320642    -0.23500
C168        C  0.07059690  0.27749143  0.91176099    -0.23500
C169        C  0.39763965  0.22867539  0.97824068    -0.23500
C170        C  0.39568271  0.19679458  0.97642124    -0.23400
C171        C  0.05260028  0.33568640  0.94177376    -0.18800
C172        C  0.44657016  0.28931467  0.98437923    -0.18800
C173        C  0.43866907  0.17564467  0.97752946    -0.18800
C174        C  0.04571369  0.22313568  0.93337318    -0.18800
H175        H  0.05622895  0.37745734  0.97815467     0.14100
H176        H  0.50172488  0.35131860  0.00484985     0.14100
H177        H  0.01750795  0.15210931  0.94822309     0.14100
H178        H  0.46368612  0.12846373  0.96443068     0.14100
H179        H  0.07827831  0.32707083  0.90079100     0.12400
H180        H  0.08149499  0.27070032  0.89838123     0.12400
H181        H  0.37637221  0.23341245  0.97562217     0.12400
H182        H  0.37268909  0.17330647  0.97191279     0.12400
H183        H  0.48868813  0.28556810  0.95125265     0.25700
H184        H  0.49358739  0.23361639  0.95504195     0.25600
N185        N  0.20272745  0.21703072  0.96019885    -0.37100
N186        N  0.27403128  0.23703902  0.97603638    -0.57700
N187        N  0.29545982  0.30872362  0.96023636    -0.37100
N188        N  0.22408704  0.28659661  0.94283501    -0.57700
C189        C  0.19727509  0.18674902  0.96952827     0.26500
C190        C  0.17169041  0.21198833  0.95230751     0.26500
C191        C  0.32490100  0.30642764  0.96301766     0.26500
C192        C  0.30117942  0.33124157  0.94352640     0.26500
C193        C  0.25459159  0.20811917  0.98795397     0.35100
C194        C  0.30405760  0.25610671  0.98714683     0.35100
C195        C  0.19157069  0.26946561  0.93394273     0.35100
C196        C  0.24166013  0.31874470  0.93359322     0.35100
C197        C  0.16276238  0.16248627  0.96646427    -0.22400
C198        C  0.14652438  0.17916418  0.95840142    -0.22400
C199        C  0.34865977  0.32605055  0.94726787    -0.22400
C200        C  0.33339668  0.34031101  0.93461238    -0.22400
C201        C  0.27174704  0.20970865  0.00684377    -0.23500
C202        C  0.30325275  0.23935454  0.00612588    -0.23500
C203        C  0.18903635  0.29099415  0.91891636    -0.23500
C204        C  0.21996400  0.32096218  0.91839861    -0.23400
C205        C  0.22087969  0.18088551  0.98288201    -0.18800
C206        C  0.16514790  0.23402173  0.93792595    -0.18800
C207        C  0.27819028  0.34361995  0.93599447    -0.18800
C208        C  0.33161498  0.28841852  0.98010212    -0.18800
H209        H  0.14944940  0.13522238  0.97006437     0.14100
H210        H  0.11881991  0.16724942  0.95659394     0.14100
H211        H  0.37399084  0.32879266  0.94471651     0.14100
H212        H  0.34448839  0.35439665  0.91974316     0.14100
H213        H  0.26158378  0.19231511  0.02044277     0.12400
H214        H  0.32234133  0.24787614  0.01875707     0.12400
H215        H  0.16906488  0.28531461  0.90729760     0.12400
H216        H  0.22612236  0.33924860  0.90552699     0.12400
H217        H  0.22644075  0.23938462  0.95887086     0.25700
H218        H  0.27393683  0.29802032  0.97050793     0.25600
C219        C  0.49032624  0.24713966  0.34523134     0.86000
C220        C  0.50298506  0.22743360  0.33167705    -0.54300
C221        C  0.03867528  0.24814527  0.32255838     0.08900
C222        C  0.05648185  0.28752816  0.33009784     0.19900
C223        C  0.01914707  0.26706414  0.36171668    -0.55000
C224        C  0.05228449  0.28649864  0.35543174     0.09000
C225        C  0.49646726  0.27866246  0.33101282    -0.54500
C226        C  0.03231711  0.30262589  0.32277440     0.09600
H227        H  0.48723607  0.19966795  0.33013592     0.14100
H228        H  0.08359784  0.30247773  0.32438644    -0.00200
H229        H  0.01175048  0.26501086  0.37875480     0.14400
H230        H  0.47627461  0.28401498  0.32762870     0.14200
C231        C  0.25407909  0.25115034  0.33778106     0.86000
C232        C  0.27111627  0.28465697  0.32449786    -0.54300
C233        C  0.25171680  0.30066929  0.32176130     0.08900
C234        C  0.21466747  0.27920704  0.33233324     0.19900
C235        C  0.24145099  0.25965597  0.35849181    -0.55000
C236        C  0.22231454  0.27492421  0.35628083     0.09000
C237        C  0.22035832  0.22843980  0.32489368    -0.54500
C238        C  0.19744767  0.24101411  0.32309424     0.09600
H239        H  0.29694885  0.29519599  0.31786185     0.14100
H240        H  0.19880835  0.29167191  0.33003321    -0.00200
H241        H  0.24780703  0.25444364  0.37461013     0.14400
H242        H  0.21654520  0.20587815  0.31636111     0.14200
C243        C  0.23712316  0.00799783  0.33697892     0.86000
C244        C  0.20572331  0.99327469  0.32190068    -0.54300
C245        C  0.19263349  0.46308735  0.31696772     0.08900
C246        C  0.21052781  0.44522649  0.32938845     0.19900
C247        C  0.22880537  0.49154928  0.35549313    -0.55000
C248        C  0.21285727  0.45721625  0.35345571     0.09000
C249        C  0.26095664  0.99568158  0.32642172    -0.54500
C250        C  0.24891447  0.46373741  0.32164421     0.09600
H251        H  0.19687610  0.00959495  0.31454023     0.14100
H252        H  0.19784347  0.41708502  0.32674662    -0.00200
H253        H  0.23393809  0.50334174  0.37153050     0.14400
H254        H  0.28787064  0.01228073  0.32265687     0.14200
O255        O  0.11807496  0.29208021  0.49667224    -0.82300
C256        C  0.19326831  0.40317786  0.44090358     0.97100
O257        O  0.17108055  0.40161961  0.45442610    -0.71400
O258        O  0.11732694  0.34284935  0.44653850    -0.75000
Al259      Al  0.13984844  0.36298565  0.47239644     1.49000
C260        C  0.10401932  0.31213648  0.44019036     0.92300
O261        O  0.16596817  0.29299022  0.44666343    -0.81200
O262        O  0.21524252  0.34568503  0.49624151    -0.74800
Al263      Al  0.14313754  0.29540241  0.47157713     1.90100
O264        O  0.21782338  0.33539553  0.45246731    -0.73900
O265        O  0.21433727  0.40248905  0.49009102    -0.73700
O266        O  0.21003724  0.38802382  0.44509117    -0.79400
O267        O  0.16027519  0.38472405  0.49833529    -0.77600
O268        O  0.16450023  0.34121916  0.47163953    -1.13700
O269        O  0.10234697  0.33019575  0.49045596    -0.72900
C270        C  0.10057827  0.30596672  0.50189237     0.97800
C271        C  0.19725341  0.30958169  0.44143307     0.94200
Al272      Al  0.21056067  0.36594326  0.47100572     1.55600
O273        O  0.10707062  0.28989191  0.45138402    -0.77500
C274        C  0.19178650  0.40252997  0.50270761     0.98400
C275        C  0.20043076  0.31462225  0.50198338     0.93300
O276        O  0.17491377  0.29189923  0.49143376    -0.82800
C277        C  0.16832797  0.09743279  0.24275918     0.86000
C278        C  0.15898518  0.06314980  0.25486940    -0.54300
C279        C  0.12379884  0.04032950  0.25793325     0.08900
C280        C  0.10197074  0.05712160  0.25008208     0.19900
C281        C  0.14606759  0.08485016  0.22255444    -0.55000
C282        C  0.11203241  0.06465946  0.22569189     0.09000
C283        C  0.15223270  0.11321024  0.25752688    -0.54500
C284        C  0.11750364  0.09361985  0.26120718     0.09600
H285        H  0.17830964  0.05851978  0.26168740     0.14100
H286        H  0.07425843  0.04103664  0.25362977    -0.00200
H287        H  0.15676975  0.09141606  0.20618157     0.14400
H288        H  0.16761826  0.13874864  0.26442452     0.14200
C289        C  0.41372491  0.33424486  0.24538587     0.86000
C290        C  0.38936536  0.34391159  0.25768986    -0.54300
C291        C  0.40110478  0.37870745  0.26064284     0.08900
C292        C  0.43994188  0.40049379  0.25233203     0.19900
C293        C  0.42436738  0.35674440  0.22495735    -0.55000
C294        C  0.43632940  0.39096853  0.22751761     0.09000
C295        C  0.44535886  0.34913629  0.25954298    -0.54500
C296        C  0.46090362  0.38370689  0.26306745     0.09600
H297        H  0.36562788  0.32453329  0.26444918     0.14100
H298        H  0.45259031  0.42827607  0.25602216    -0.00200
H299        H  0.42060650  0.34549641  0.20885337     0.14400
H300        H  0.45530480  0.33319044  0.26604141     0.14200
C301        C  0.40035220  0.08679794  0.23792888     0.86000
C302        C  0.43574671  0.11080316  0.24820353    -0.54300
C303        C  0.45308986  0.09484020  0.25659442     0.08900
C304        C  0.43321894  0.05499371  0.25085294     0.19900
C305        C  0.41069875  0.07068732  0.21989489    -0.55000
C306        C  0.42772529  0.05425393  0.22566797     0.09000
C307        C  0.38073303  0.05819317  0.25481365    -0.54500
C308        C  0.39507597  0.03785868  0.26017259     0.09600
H309        H  0.44807799  0.13847660  0.24624127     0.14100
H310        H  0.44784139  0.04306791  0.25728700    -0.00200
H311        H  0.40664369  0.07383180  0.20279957     0.14400
H312        H  0.35745078  0.05578722  0.26183652     0.14200
O313        O  0.49106582  0.04797728  0.08373449    -0.82300
C314        C  0.46388311  0.44651167  0.13941563     0.97100
O315        O  0.44215550  0.44419117  0.12523135    -0.71400
O316        O  0.43535234  0.99405398  0.13227742    -0.75000
Al317      Al  0.44640991  0.48121351  0.10644707     1.49000
C318        C  0.45016885  0.02463376  0.13857321     0.92300
O319        O  0.03400326  0.04888406  0.13630617    -0.81200
O320        O  0.04014705  0.00453127  0.08237426    -0.74800
Al321      Al  0.01300186  0.04898896  0.10999697     1.90100
O322        O  0.05266296  0.01375522  0.12669215    -0.73900
O323        O  0.48658691  0.44629970  0.08810744    -0.73700
O324        O  0.49557348  0.46091169  0.13418867    -0.79400
O325        O  0.44743062  0.46015222  0.08028519    -0.77600
O326        O  0.48619695  0.99782704  0.10792204    -1.13700
O327        O  0.43688544  0.00778433  0.08731785    -0.72900
C328        C  0.46044819  0.03392787  0.07740842     0.97800
C329        C  0.05279960  0.03562409  0.13990659     0.94200
Al330      Al  0.01148597  0.48138488  0.10713547     1.55600
O331        O  0.47393104  0.04717872  0.12698273    -0.77500
C332        C  0.46341784  0.44446496  0.07535700     0.98400
C333        C  0.05626091  0.03701882  0.08043631     0.93300
O334        O  0.05147952  0.05590337  0.09362481    -0.82800
N335        N  0.03340493  0.17414336  0.28720849    -0.37100
N336        N  0.04834460  0.11928828  0.27524302    -0.57700
N337        N  0.12208161  0.16711834  0.29132623    -0.37100
N338        N  0.10544975  0.22040268  0.30486109    -0.57700
C339        C  0.00195558  0.15037288  0.27877821     0.26500
C340        C  0.03077676  0.20178343  0.29461724     0.26500
C341        C  0.11719455  0.13448685  0.28967723     0.26500
C342        C  0.14636214  0.18394165  0.30701952     0.26500
C343        C  0.01766561  0.10678761  0.26462865     0.35100
C344        C  0.06567205  0.10424205  0.26622813     0.35100
C345        C  0.08679669  0.23307391  0.31521021     0.35100
C346        C  0.13518976  0.23100888  0.31651323     0.35100
C347        C  0.47534982  0.15892981  0.28329278    -0.22400
C348        C  0.99826809  0.19631036  0.28929062    -0.22400
C349        C  0.13730688  0.13001340  0.30493249    -0.22400
C350        C  0.15452225  0.16047037  0.31634190    -0.22400
C351        C  0.01575193  0.08316874  0.24924211    -0.23500
C352        C  0.04576121  0.08204482  0.24997385    -0.23500
C353        C  0.10363058  0.24946606  0.33383332    -0.23500
C354        C  0.13392049  0.24854527  0.33468814    -0.23400
C355        C  0.99283845  0.11832089  0.26741645    -0.18800
C356        C  0.05374685  0.22870054  0.30934248    -0.18800
C357        C  0.15976632  0.21923324  0.31390281    -0.18800
C358        C  0.09876832  0.11011319  0.27292616    -0.18800
H359        H  0.44769263  0.14560308  0.28155406     0.14100
H360        H  0.48265118  0.20835673  0.29374233     0.14100
H361        H  0.13889834  0.10685892  0.30772175     0.14100
H362        H  0.16988127  0.16396790  0.33065658     0.14100
H363        H  0.99640743  0.06950139  0.23720273     0.12400
H364        H  0.05185955  0.06758882  0.23857435     0.12400
H365        H  0.09304308  0.25776630  0.34662016     0.12400
H366        H  0.15070941  0.25623544  0.34857935     0.12400
H367        H  0.05509366  0.17139583  0.28881465     0.25700
H368        H  0.11212935  0.17819279  0.28069678     0.25600
N369        N  0.32645637  0.46935052  0.29555134    -0.37100
N370        N  0.37327635  0.44608041  0.27703870    -0.57700
N371        N  0.32564028  0.37420059  0.29369801    -0.37100
N372        N  0.27600618  0.39534387  0.30973315    -0.57700
C373        C  0.34109163  0.48886257  0.27749854     0.26500
C374        C  0.29327255  0.46330354  0.29643894     0.26500
C375        C  0.34248677  0.36975351  0.27649395     0.26500
C376        C  0.29393026  0.34520373  0.29515078     0.26500
C377        C  0.38819339  0.47828283  0.26780282     0.35100
C378        C  0.38764169  0.42853732  0.26724124     0.35100
C379        C  0.26265508  0.41319079  0.32000078     0.35100
C380        C  0.26226600  0.36380288  0.31926465     0.35100
C381        C  0.31457527  0.99506046  0.26860031    -0.22400
C382        C  0.28614864  0.47688368  0.27847086    -0.22400
C383        C  0.31971585  0.33926367  0.26599365    -0.22400
C384        C  0.28990795  0.32321538  0.27821794    -0.22400
C385        C  0.41043270  0.47971340  0.25156481    -0.23500
C386        C  0.40878507  0.44847252  0.25077568    -0.23500
C387        C  0.24059275  0.39291682  0.33637302    -0.23500
C388        C  0.24021676  0.36185329  0.33584700    -0.23400
C389        C  0.37605593  0.50267116  0.27013849    -0.18800
C390        C  0.26898584  0.44635964  0.31321814    -0.18800
C391        C  0.26886407  0.33719477  0.31191579    -0.18800
C392        C  0.37745616  0.39285446  0.26969650    -0.18800
H393        H  0.31636086  0.00712803  0.25324257     0.14100
H394        H  0.26156207  0.98096709  0.27785525     0.14100
H395        H  0.32352872  0.32985351  0.25058911     0.14100
H396        H  0.26724020  0.29869826  0.27465541     0.14100
H397        H  0.42209636  0.49802711  0.23871041     0.12400
H398        H  0.41704607  0.43958855  0.23705734     0.12400
H399        H  0.22614899  0.39923097  0.34777184     0.12400
H400        H  0.22551065  0.34093355  0.34686813     0.12400
H401        H  0.33893889  0.46275360  0.30737081     0.25700
H402        H  0.33623503  0.39441173  0.30491440     0.25600
N403        N  0.02947091  0.37713565  0.29095473    -0.37100
N404        N  0.09838933  0.39512498  0.30315037    -0.57700
N405        N  0.12422667  0.47040325  0.28790440    -0.37100
N406        N  0.05561896  0.45382158  0.27571121    -0.57700
C407        C  0.02259801  0.35267945  0.30653075     0.26500
C408        C  0.00314418  0.38448518  0.29100736     0.26500
C409        C  0.15167416  0.46493583  0.28910808     0.26500
C410        C  0.13145735  0.49475510  0.27225630     0.26500
C411        C  0.08106642  0.36492122  0.31448469     0.35100
C412        C  0.12978105  0.41384302  0.31294296     0.35100
C413        C  0.02486124  0.43360240  0.26574353     0.35100
C414        C  0.07325414  0.48262507  0.26322378     0.35100
C415        C  0.99250408  0.34648268  0.31731745    -0.22400
C416        C  0.47781756  0.36298279  0.30700581    -0.22400
C417        C  0.17593435  0.48479400  0.27362312    -0.22400
C418        C  0.16035411  0.99588850  0.26335083    -0.22400
C419        C  0.10108409  0.36619086  0.33169307    -0.23500
C420        C  0.13124111  0.39618386  0.33078208    -0.23500
C421        C  0.02421805  0.44797123  0.24626801    -0.23500
C422        C  0.05380709  0.47938090  0.24500284    -0.23400
C423        C  0.04528487  0.33966140  0.31282217    -0.18800
C424        C  0.99686442  0.40330160  0.27457811    -0.18800
C425        C  0.10906486  0.50760086  0.26534347    -0.18800
C426        C  0.15733695  0.44604744  0.30568360    -0.18800
H427        H  0.47975726  0.33155996  0.33325217     0.14100
H428        H  0.45422718  0.36344377  0.31067788     0.14100
H429        H  0.19775270  0.97883682  0.27119879     0.14100
H430        H  0.17180156  0.01088696  0.24883839     0.14100
H431        H  0.09372315  0.34988418  0.34534059     0.12400
H432        H  0.15035179  0.40404843  0.34320203     0.12400
H433        H  0.00533895  0.43599910  0.23366663     0.12400
H434        H  0.06091932  0.49619359  0.23120025     0.12400
H435        H  0.04940862  0.38616866  0.27949444     0.25700
H436        H  0.10345067  0.46049428  0.29876007     0.25600
C437        C  0.32147584  0.42831588  0.67696948     0.86000
C438        C  0.32982207  0.40082111  0.66761560    -0.54300
C439        C  0.36378214  0.41230088  0.66139909     0.08900
C440        C  0.38698227  0.45161521  0.66818822     0.19900
C441        C  0.34419443  0.44071010  0.69660928    -0.55000
C442        C  0.37801124  0.45251957  0.69314358     0.09000
C443        C  0.33704316  0.45850494  0.66131463    -0.54500
C444        C  0.37134207  0.47230572  0.65622052     0.09600
H445        H  0.31169398  0.37372570  0.66962315     0.14100
H446        H  0.41460829  0.46163040  0.66444603    -0.00200
H447        H  0.33382886  0.43874439  0.71294326     0.14400
H448        H  0.32159706  0.46950018  0.65577543     0.14200
C449        C  0.08405498  0.17861521  0.68165741     0.86000
C450        C  0.04997647  0.17070528  0.67006400    -0.54300
C451        C  0.03001082  0.13739541  0.66216231     0.08900
C452        C  0.04622805  0.11437679  0.66927170     0.21100
C453        C  0.07066680  0.15337475  0.70008940    -0.55000
C454        C  0.05156178  0.12001210  0.69486394     0.09000
C455        C  0.10267502  0.16572259  0.66671700    -0.54500
C456        C  0.08421351  0.13235440  0.65947799     0.09600
H457        H  0.03988332  0.18820654  0.67161386     0.14100
H458        H  0.02977860  0.08748282  0.66382867    -0.00200
H459        H  0.07557127  0.16159861  0.71701440     0.14400
H460        H  0.13010033  0.18190514  0.66373603     0.14200
C461        C  0.06856380  0.41943718  0.68452369     0.86000
C462        C  0.09439883  0.45213060  0.67145801    -0.54300
C463        C  0.08081197  0.47046608  0.66106420     0.08900
C464        C  0.04104010  0.45338918  0.66679667     0.19900
C465        C  0.05443295  0.43462225  0.70068048    -0.55000
C466        C  0.04142078  0.45371025  0.69257045     0.09000
C467        C  0.03859798  0.39745858  0.66973052    -0.54500
C468        C  0.02330278  0.41363869  0.65977004     0.09600
H469        H  0.12189790  0.46317063  0.67391045     0.14100
H470        H  0.02781495  0.46641203  0.65946471    -0.00200
H471        H  0.05774328  0.43323742  0.71808893     0.14400
H472        H  0.02806041  0.36972904  0.66924471     0.14200
O473        O  0.03019321  0.99207859  0.83767590    -0.82300
C474        C  0.43378281  0.47777216  0.77992666     0.97100
O475        O  0.43475531  0.45512126  0.79177192    -0.71400
O476        O  0.49062759  0.45350293  0.78309836    -0.75000
Al477      Al  0.47110895  0.45721064  0.81004434     1.49000
C478        C  0.01616231  0.47237673  0.77831665     0.92300
O479        O  0.03380355  0.03840459  0.78529583    -0.81200
O480        O  0.48269529  0.04611807  0.83839989    -0.74800
Al481      Al  0.02956256  0.01432566  0.81153301     1.90100
O482        O  0.49481871  0.06054255  0.79395084    -0.73900
O483        O  0.42111664  0.99286464  0.82999412    -0.73700
O484        O  0.43766415  0.00556464  0.78463016    -0.79400
O485        O  0.44818679  0.45719947  0.83657212    -0.77600
O486        O  0.47924584  0.99703437  0.81108978    -1.13700
O487        O  0.50163094  0.44948717  0.82864150    -0.72900
C488        C  0.02133166  0.47084133  0.84130090     0.97800
C489        C  0.02269867  0.05879821  0.78101865     0.94200
Al490      Al  0.46009518  0.02392864  0.81176695     1.55600
O491        O  0.03014018  0.97982577  0.79310560    -0.77500
C492        C  0.43613643  0.47663796  0.84182831     0.98400
C493        C  0.02069221  0.05992350  0.84207345     0.93300
O494        O  0.03889011  0.05253718  0.82972683    -0.82800
C495        C  0.23731700  0.00114149  0.57225648     0.86000
C496        C  0.21909664  0.01388399  0.58768542    -0.54300
C497        C  0.23671850  0.04802994  0.59367859     0.08900
C498        C  0.27378949  0.06643914  0.58271939     0.19900
C499        C  0.24759804  0.02487229  0.55319526    -0.55000
C500        C  0.26620336  0.05867644  0.55735897     0.09000
C501        C  0.27288637  0.01146748  0.58247354    -0.54500
C502        C  0.29233431  0.04511125  0.58968747     0.09600
H503        H  0.19096745  0.49057037  0.59245462     0.14100
H504        H  0.28853587  0.09390645  0.58738180    -0.00200
H505        H  0.24138487  0.01521947  0.53658147     0.14400
H506        H  0.28473570  0.49303505  0.57715540     0.14200
C507        C  0.49910142  0.25459707  0.56936282     0.86000
C508        C  0.48698585  0.22365396  0.58466880    -0.54300
C509        C  0.45289031  0.20732817  0.59109615     0.08900
C510        C  0.43385544  0.22571596  0.58078734     0.19900
C511        C  0.47459864  0.24136406  0.55057201    -0.55000
C512        C  0.44084015  0.22597487  0.55539520     0.09000
C513        C  0.48865069  0.27941903  0.58049589    -0.54500
C514        C  0.45499290  0.26479888  0.58797321     0.09600
H515        H  0.00504880  0.21487824  0.58913702     0.14100
H516        H  0.40652633  0.21389648  0.58586621    -0.00200
H517        H  0.48354757  0.24434845  0.53378387     0.14400
H518        H  0.00523660  0.30700724  0.58041569     0.14200
C519        C  0.24949463  0.26239288  0.56888608     0.86000
C520        C  0.27894913  0.28035249  0.58454623    -0.54300
C521        C  0.29294465  0.26142933  0.59242701     0.08900
C522        C  0.27333079  0.22290773  0.58304851     0.19900
C523        C  0.26407766  0.24962768  0.55139116    -0.55000
C524        C  0.27339548  0.22636427  0.55730639     0.09000
C525        C  0.22204027  0.22834744  0.58041336    -0.54500
C526        C  0.23411270  0.20772174  0.58931750     0.09600
H527        H  0.28999911  0.30775902  0.58740403     0.14100
H528        H  0.28502207  0.20756265  0.58896234    -0.00200
H529        H  0.26300908  0.25561107  0.53437485     0.14400
H530        H  0.19472270  0.21867032  0.57844252     0.14200
O531        O  0.36597359  0.15859708  0.41292012    -0.82300
C532        C  0.28864485  0.18688213  0.47196236     0.97100
O533        O  0.31307763  0.21069952  0.46113437    -0.71400
O534        O  0.36778588  0.20732516  0.46447575    -0.75000
Al535      Al  0.34381049  0.20724241  0.44001633     1.49000
C536        C  0.38344758  0.19138390  0.46902370     0.92300
O537        O  0.31878092  0.11318468  0.46280127    -0.81200
O538        O  0.27288900  0.11953912  0.41041794    -0.74800
Al539      Al  0.34134069  0.13670392  0.43764121     1.90100
O540        O  0.26623906  0.10016293  0.45436391    -0.73900
O541        O  0.26976435  0.17441221  0.41947825    -0.73700
O542        O  0.27028864  0.15769941  0.46378470    -0.79400
O543        O  0.32342388  0.21354556  0.41525505    -0.77600
O544        O  0.31974439  0.16144806  0.43818156    -1.13700
O545        O  0.37948903  0.21215455  0.42011317    -0.72900
C546        C  0.38258282  0.19018166  0.40867173     0.97800
C547        C  0.28725647  0.09873552  0.46758059     0.94200
Al548      Al  0.27360590  0.13986418  0.43705467     1.55600
O549        O  0.37916572  0.16632802  0.45716957    -0.77500
C550        C  0.29281783  0.19969447  0.40887525     0.98400
C551        C  0.28658895  0.10176930  0.40529258     0.93300
O552        O  0.30911014  0.10121307  0.41760719    -0.82800
N553        N  0.45710308  0.33993521  0.62261798    -0.37100
N554        N  0.43108049  0.38604165  0.64201297    -0.57700
N555        N  0.36015536  0.33298356  0.62978726    -0.37100
N556        N  0.38619066  0.28729184  0.60961317    -0.57700
C557        C  0.48685729  0.36535575  0.63177832     0.26500
C558        C  0.46339180  0.31509209  0.61395489     0.26500
C559        C  0.35328279  0.35736888  0.63862031     0.26500
C560        C  0.33037587  0.30671074  0.62126615     0.26500
C561        C  0.46235289  0.39825388  0.65202927     0.35100
C562        C  0.41194500  0.39637118  0.65425958     0.35100
C563        C  0.40520373  0.27702089  0.59726906     0.35100
C564        C  0.35522894  0.27568761  0.59936600     0.35100
C565        C  0.51257415  0.35702238  0.62760053    -0.22400
C566        C  0.49741727  0.32474201  0.61850330    -0.22400
C567        C  0.31855527  0.34592155  0.63506902    -0.22400
C568        C  0.30389207  0.31327436  0.62663617    -0.22400
C569        C  0.46194534  0.41465321  0.67089139    -0.23500
C570        C  0.43099920  0.41406223  0.67212081    -0.23500
C571        C  0.38591524  0.25901139  0.57951578    -0.23500
C572        C  0.35555749  0.25944168  0.58041687    -0.23400
C573        C  0.49113231  0.39388554  0.64559117    -0.18800
C574        C  0.44054694  0.28567588  0.60055276    -0.18800
C575        C  0.32672577  0.28020181  0.60588712    -0.18800
C576        C  0.37677818  0.38843075  0.65068505    -0.18800
H577        H  0.03843382  0.36924248  0.63388152     0.14100
H578        H  0.51080611  0.31043189  0.61582640     0.14100
H579        H  0.30451939  0.35966359  0.63671919     0.14100
H580        H  0.27661508  0.29755598  0.62329904     0.14100
H581        H  0.48072011  0.42345580  0.68354452     0.12400
H582        H  0.42288038  0.42371623  0.68557587     0.12400
H583        H  0.39315823  0.24819444  0.56630030     0.12400
H584        H  0.33711746  0.25101718  0.56749369     0.12400
H585        H  0.43376006  0.34042873  0.62160481     0.25700
H586        H  0.38439110  0.33421845  0.62913653     0.25600
N587        N  0.20987474  0.11639762  0.61095104    -0.37100
N588        N  0.15716670  0.13551496  0.62342430    -0.57700
N589        N  0.11061321  0.06456914  0.64118343    -0.37100
N590        N  0.16358947  0.04618988  0.62844347    -0.57700
C591        C  0.21936401  0.14530609  0.59860783     0.26500
C592        C  0.22363529  0.09801281  0.60126265     0.26500
C593        C  0.09529695  0.08183006  0.65021412     0.26500
C594        C  0.09783975  0.03343657  0.65158077     0.26500
C595        C  0.18051577  0.16601027  0.61370329     0.35100
C596        C  0.13017138  0.13927496  0.63099343     0.35100
C597        C  0.19144238  0.04287377  0.62223371     0.35100
C598        C  0.13971305  0.01533286  0.63737760     0.35100
C599        C  0.23790513  0.14403639  0.58120705    -0.22400
C600        C  0.24210286  0.11607089  0.58327830    -0.22400
C601        C  0.07208099  0.06056958  0.66577678    -0.22400
C602        C  0.07394798  0.03114422  0.66677825    -0.22400
C603        C  0.16825221  0.18898991  0.61575232    -0.23500
C604        C  0.13585741  0.17149846  0.62464720    -0.23500
C605        C  0.18596524  0.01104419  0.62899537    -0.23500
C606        C  0.15242607  0.99268299  0.63558170    -0.23400
C607        C  0.21103028  0.17243667  0.60145493    -0.18800
C608        C  0.21821558  0.06440448  0.60696285    -0.18800
C609        C  0.10839959  0.00786042  0.64908219    -0.18800
C610        C  0.10270693  0.11659832  0.64580982    -0.18800
H611        H  0.24503584  0.15970844  0.56717189     0.14100
H612        H  0.25518643  0.10931264  0.57131646     0.14100
H613        H  0.05707048  0.06553225  0.67729853     0.14100
H614        H  0.06066589  0.01194065  0.67901946     0.14100
H615        H  0.18100315  0.21605479  0.61201883     0.12400
H616        H  0.11920001  0.18249784  0.62712304     0.12400
H617        H  0.20319682  0.00051779  0.62753157     0.12400
H618        H  0.13271056  0.46110994  0.63976556     0.12400
H619        H  0.19608836  0.11029729  0.62550499     0.25700
H620        H  0.12821548  0.07327611  0.62840199     0.25600
N621        N  0.44034779  0.06971053  0.64059511    -0.37100
N622        N  0.45648037  0.13963970  0.62842091    -0.57700
N623        N  0.38519364  0.11361072  0.60900777    -0.37100
N624        N  0.36919474  0.04345683  0.62100378    -0.57700
C625        C  0.46873291  0.08902942  0.65338392     0.26500
C626        C  0.42209797  0.03762226  0.64978775     0.26500
C627        C  0.40296405  0.14548272  0.59946695     0.26500
C628        C  0.35470041  0.09479081  0.59796363     0.26500
C629        C  0.48723412  0.14782353  0.63836600     0.35100
C630        C  0.45912998  0.16966746  0.62061721     0.35100
C631        C  0.36681688  0.01309989  0.62809960     0.35100
C632        C  0.33751943  0.03590848  0.61265482     0.35100
C633        C  0.46746197  0.06883881  0.67070739    -0.22400
C634        C  0.43876838  0.03722987  0.66844792    -0.22400
C635        C  0.38285977  0.14633386  0.58265258    -0.22400
C636        C  0.35347687  0.11524075  0.58164672    -0.22400
C637        C  0.50907642  0.18297994  0.63613149    -0.23500
C638        C  0.49050356  0.19677503  0.62730867    -0.23500
C639        C  0.33437181  0.98646620  0.62270574    -0.23500
C640        C  0.31538737  0.00094207  0.61555754    -0.23400
C641        C  0.49497867  0.12470741  0.65076301    -0.18800
C642        C  0.38991708  0.00882740  0.64290997    -0.18800
C643        C  0.32880685  0.05915327  0.60099665    -0.18800
C644        C  0.43707954  0.17335793  0.60473686    -0.18800
H645        H  0.48411741  0.07610900  0.68453732     0.14100
H646        H  0.43012872  0.01717230  0.68027983     0.14100
H647        H  0.38862411  0.16563305  0.57061190     0.14100
H648        H  0.33504336  0.10848972  0.56879047     0.14100
H649        H  0.03588538  0.19729576  0.63862322     0.12400
H650        H  0.50054085  0.22408936  0.62474535     0.12400
H651        H  0.33023415  0.45553980  0.61955116     0.12400
H652        H  0.28775051  0.98659876  0.61396852     0.12400
H653        H  0.43457662  0.07721427  0.62590604     0.25700
H654        H  0.39299879  0.10565477  0.62268775     0.25600
C655        C  0.29578367  0.19374906  0.53378272    -0.02400
C656        C  0.27014148  0.20232358  0.53874768     0.07300
C657        C  0.24435817  0.19456892  0.52255529    -0.02500
C658        C  0.25172455  0.19256138  0.50053570    -0.02500
C659        C  0.28186740  0.19181875  0.49495058     0.07500
C660        C  0.30045099  0.18706620  0.51196409    -0.02700
Br661      Br  0.32623805  0.16434139  0.50637470    -0.01200
Br662      Br  0.31889545  0.18363019  0.55659056    -0.01300
Br663      Br  0.22031836  0.18995496  0.47814291    -0.01200
Br664      Br  0.19905912  0.18680182  0.53055510    -0.01200
C665        C  0.41846779  0.23899762  0.52187575    -0.02400
C666        C  0.41858083  0.21335277  0.53550283     0.07300
C667        C  0.41472193  0.18293953  0.52516611    -0.02500
C668        C  0.40644808  0.17649359  0.50282244    -0.02500
C669        C  0.40341141  0.20102501  0.48994504     0.07500
C670        C  0.41271461  0.23345296  0.49934355    -0.02700
Br671      Br  0.42277417  0.27227383  0.48067603    -0.01200
Br672      Br  0.43295641  0.28484673  0.53290535    -0.01300
Br673      Br  0.40229012  0.13520920  0.48978116    -0.01200
Br674      Br  0.42721203  0.15271033  0.54018099    -0.01200
C675        C  0.30126222  0.07549677  0.52364865    -0.02400
C676        C  0.27664943  0.07916579  0.53660774     0.07300
C677        C  0.25064070  0.08275223  0.52522201    -0.02500
C678        C  0.25188015  0.08677465  0.50235352    -0.02500
C679        C  0.27715988  0.08389285  0.48996013     0.07500
C680        C  0.29920995  0.07465315  0.50077968    -0.02700
Br681      Br  0.32255749  0.05537610  0.48398496    -0.01200
Br682      Br  0.33375080  0.06425005  0.53681743    -0.01300
Br683      Br  0.21674956  0.09333350  0.48835977    -0.01200
Br684      Br  0.20873277  0.07476302  0.53968647    -0.01200
C685        C  0.06620627  0.49417744  0.72399339    -0.02400
C686        C  0.03847741  0.47710082  0.70911587     0.07300
C687        C  0.00565171  0.46635711  0.71702407    -0.02500
C688        C  0.99857862  0.45848451  0.73904883    -0.02500
C689        C  0.02534455  0.47253556  0.75465422     0.07500
C690        C  0.05985373  0.49157802  0.74670447    -0.02700
Br691      Br  0.09899859  0.50828193  0.76595794    -0.01200
Br692      Br  0.11290452  0.51533893  0.71296917    -0.01300
Br693      Br  0.46013372  0.41479154  0.74367362    -0.01200
Br694      Br  0.48132335  0.48371589  0.70403766    -0.01200
C695        C  0.01620111  0.10151648  0.72886872    -0.02400
C696        C  0.03948189  0.09737017  0.71475399     0.07300
C697        C  0.06295268  0.08870382  0.72482587    -0.02500
C698        C  0.05964679  0.07960085  0.74705420    -0.02500
C699        C  0.03271639  0.07834619  0.75983911     0.07500
C700        C  0.01453815  0.09411045  0.75135421    -0.02700
Br701      Br  0.99426819  0.11331943  0.77098768    -0.01200
Br702      Br  0.99122472  0.12399485  0.71848354    -0.01300
Br703      Br  0.09813550  0.08008096  0.76171778    -0.01200
Br704      Br  0.10468553  0.09683460  0.71017170    -0.01200
C705        C  0.40429532  0.49101058  0.72516440    -0.02400
C706        C  0.39809587  0.46058829  0.71386589     0.07300
C707        C  0.39338730  0.43207129  0.72683500    -0.02500
C708        C  0.40006300  0.43590498  0.74943499    -0.02500
C709        C  0.41344338  0.46852898  0.75920157     0.07500
C710        C  0.40993625  0.49386253  0.74780453    -0.02700
Br711      Br  0.42134753  0.03310140  0.74500093    -0.01200
Br712      Br  0.48162682  0.01558548  0.70965217    -0.01300
Br713      Br  0.38227180  0.39549668  0.76776674    -0.01200
Br714      Br  0.37133693  0.38593723  0.71484044    -0.01200
C715        C  0.41451331  0.01140109  0.19634532    -0.02400
C716        C  0.43962584  0.04204695  0.20669991     0.07300
C717        C  0.46530993  0.06847251  0.19348689    -0.02500
C718        C  0.46517470  0.06469236  0.17076417    -0.02500
C719        C  0.44255827  0.03270666  0.16088734     0.07500
C720        C  0.41633468  0.00639349  0.17387633    -0.02700
Br721      Br  0.38609952  0.46662428  0.16104968    -0.01200
Br722      Br  0.37282337  0.97894101  0.21151178    -0.01300
Br723      Br  0.00133848  0.10965556  0.15510700    -0.01200
Br724      Br  0.49604381  0.11358394  0.20562096    -0.01200
C725        C  0.41384660  0.39372071  0.18991504    -0.02400
C726        C  0.43800334  0.41117761  0.20692983     0.07300
C727        C  0.46392940  0.44530735  0.20227527    -0.02500
C728        C  0.47020071  0.45690291  0.18041354    -0.02500
C729        C  0.45284551  0.43455431  0.16268880     0.07500
C730        C  0.42236650  0.40369760  0.16788962    -0.02700
Br731      Br  0.39151005  0.37525167  0.14532884    -0.01200
Br732      Br  0.36683138  0.35977138  0.19731359    -0.01300
Br733      Br  0.49489840  0.50534757  0.17575297    -0.01200
Br734      Br  0.48538142  0.47925138  0.22498628    -0.01200
C735        C  0.07998520  0.07483025  0.17173296    -0.02400
C736        C  0.07202168  0.04376406  0.16092686     0.07300
C737        C  0.07679034  0.01870504  0.17221040    -0.02500
C738        C  0.08814317  0.02453143  0.19396374    -0.02500
C739        C  0.09082044  0.05322048  0.20564034     0.07500
C740        C  0.08713166  0.07858604  0.19409290    -0.02700
Br741      Br  0.09684420  0.12130643  0.20808475    -0.01200
Br742      Br  0.08553923  0.11428942  0.15543081    -0.01300
Br743      Br  0.10552690  0.99607594  0.20616937    -0.01200
Br744      Br  0.06377371  0.47675077  0.15929494    -0.01200
C745        C  0.22659566  0.43804627  0.55906763    -0.02400
C746        C  0.21335741  0.46067866  0.56212266     0.07300
C747        C  0.18608149  0.45632783  0.54811934    -0.02500
C748        C  0.18268416  0.44105500  0.52768695    -0.02500
C749        C  0.20096827  0.42353297  0.52279579     0.07500
C750        C  0.22201857  0.42097966  0.53901588    -0.02700
Br751      Br  0.24540377  0.39505495  0.53432160    -0.01200
Br752      Br  0.24306396  0.42384007  0.58366082    -0.01300
Br753      Br  0.15651715  0.44859449  0.50537369    -0.01200
Br754      Br  0.15671195  0.47578085  0.55466828    -0.01200
C755        C  0.19182765  0.28891782  0.53945398    -0.02400
C756        C  0.21363140  0.30554059  0.52148270     0.07300
C757        C  0.24947775  0.31866957  0.52378419    -0.02500
C758        C  0.26236458  0.31179535  0.54275077    -0.02500
C759        C  0.23902164  0.28691705  0.55788949     0.07500
C760        C  0.20470952  0.28037140  0.55788025    -0.02700
Br761      Br  0.17867802  0.26865614  0.58463212    -0.01200
Br762      Br  0.14525449  0.28039438  0.54001562    -0.01300
Br763      Br  0.31201638  0.33427587  0.54642451    -0.01200
Br764      Br  0.28119132  0.34402596  0.50043452    -0.01200
C765        C  0.06244059  0.25790284  0.52720362    -0.02400
C766        C  0.07853904  0.29335273  0.52181663     0.07300
C767        C  0.07756979  0.31652043  0.53726225    -0.02500
C768        C  0.05934004  0.30412486  0.55699573    -0.02500
C769        C  0.03694121  0.26842289  0.55990610     0.07500
C770        C  0.04283715  0.24563792  0.54639603    -0.02700
Br771      Br  0.02040962  0.19635056  0.55158188    -0.01200
Br772      Br  0.06393052  0.22460294  0.50740956    -0.01300
Br773      Br  0.07228912  0.33517306  0.58148536    -0.01200
Br774      Br  0.10063653  0.36540225  0.53210883    -0.01200
C775        C  0.28654511  0.06719415  0.34815371    -0.02400
C776        C  0.25079185  0.04564404  0.34468760     0.07300
C777        C  0.22818317  0.05124875  0.35853884    -0.02500
C778        C  0.23951879  0.06526017  0.37938451    -0.02500
C779        C  0.27499466  0.08174292  0.38462036     0.07500
C780        C  0.29867504  0.08418663  0.36832286    -0.02700
Br781      Br  0.34766464  0.11080110  0.37301265    -0.01200
Br782      Br  0.31794054  0.07981747  0.32387117    -0.01300
Br783      Br  0.20543074  0.05670130  0.40179765    -0.01200
Br784      Br  0.17969131  0.03224008  0.35193706    -0.01200
C785        C  0.23319597  0.43944505  0.38590530    -0.02400
C786        C  0.20501244  0.43796880  0.37435367     0.07300
C787        C  0.17570528  0.43297032  0.38646963    -0.02500
C788        C  0.17205158  0.42339291  0.40860029    -0.02500
C789        C  0.19872529  0.42068825  0.41934239     0.07500
C790        C  0.23035844  0.43200711  0.40826580    -0.02700
Br791      Br  0.27186313  0.44454827  0.42466467    -0.01200
Br792      Br  0.27824502  0.45818414  0.37231085    -0.01300
Br793      Br  0.13217227  0.41845217  0.42424051    -0.01200
Br794      Br  0.14363986  0.44575551  0.37410837    -0.01200
C795        C  0.26161573  0.20133270  0.35094351    -0.02400
C796        C  0.27763593  0.23689212  0.34617697     0.07300
C797        C  0.30510843  0.25886924  0.36045322    -0.02500
C798        C  0.30719618  0.24765135  0.38165242    -0.02500
C799        C  0.28562090  0.21272662  0.38798229     0.07500
C800        C  0.26320040  0.18959526  0.37201959    -0.02700
Br801      Br  0.23411955  0.14141090  0.37806017    -0.01200
Br802      Br  0.24546407  0.16878452  0.32732755    -0.01300
Br803      Br  0.33834638  0.28156904  0.40233370    -0.01200
Br804      Br  0.33777177  0.30585274  0.35254361    -0.01200
C805        C  0.23935811  0.31674034  0.38656239    -0.02400
C806        C  0.21354559  0.28595841  0.37681655     0.07300
C807        C  0.18918723  0.25971638  0.39052625    -0.02500
C808        C  0.18833401  0.26605732  0.41282788    -0.02500
C809        C  0.20846033  0.29973445  0.42112088     0.07500
C810        C  0.23600892  0.32433541  0.40831795    -0.02700
Br811      Br  0.27211867  0.36643465  0.42074487    -0.01200
Br812      Br  0.28306272  0.34501253  0.37191160    -0.01300
Br813      Br  0.16395914  0.22770878  0.43261779    -0.01200
Br814      Br  0.16085218  0.21329604  0.37953349    -0.01200
C815        C  0.42569176  0.22622502  0.35440594    -0.02400
C816        C  0.45562736  0.22297435  0.35647799     0.07300
C817        C  0.45546305  0.20027565  0.37300006    -0.02500
C818        C  0.43229617  0.19096643  0.39040712    -0.02500
C819        C  0.40688717  0.20084193  0.39042731     0.07500
C820        C  0.40172677  0.21562800  0.37166386    -0.02700
Br821      Br  0.36003891  0.21791592  0.36865793    -0.01200
Br822      Br  0.41244711  0.23689733  0.32693478    -0.01300
Br823      Br  0.43671958  0.16615931  0.41492221    -0.01200
Br824      Br  0.48898186  0.18434167  0.37390783    -0.01200
C825        C  0.06625667  0.32373869  0.38817096    -0.02400
C826        C  0.07722388  0.30687621  0.37312183     0.07300
C827        C  0.09916966  0.29531762  0.38071916    -0.02500
C828        C  0.09905132  0.28834210  0.40278918    -0.02500
C829        C  0.08818060  0.30435953  0.41822208     0.07500
C830        C  0.07154019  0.32230396  0.41062250    -0.02700
Br831      Br  0.05082069  0.33964585  0.43107471    -0.01200
Br832      Br  0.04073181  0.34548558  0.37786511    -0.01300
Br833      Br  0.10963511  0.25333164  0.41037859    -0.01200
Br834      Br  0.14368925  0.31445882  0.36706928    -0.01200
C835        C  0.38239628  0.15286663  0.21051259    -0.02400
C836        C  0.36793866  0.13430745  0.19093496     0.07300
C837        C  0.35488928  0.09825041  0.19107594    -0.02500
C838        C  0.35567663  0.08183408  0.21025179    -0.02500
C839        C  0.37889517  0.10146557  0.22710708     0.07500
C840        C  0.38810539  0.13648798  0.22843848    -0.02700
Br841      Br  0.40058506  0.15931319  0.25622218    -0.01200
Br842      Br  0.39371348  0.20012847  0.21376521    -0.01300
Br843      Br  0.32957158  0.03211132  0.21136949    -0.01200
Br844      Br  0.34020965  0.07085517  0.16468524    -0.01200
C845        C  0.42294292  0.29212622  0.22324051    -0.02400
C846        C  0.40101380  0.29671713  0.23797689     0.07300
C847        C  0.36543845  0.27332307  0.23599345    -0.02500
C848        C  0.35211144  0.25617577  0.21602864    -0.02500
C849        C  0.37467228  0.26181053  0.19805260     0.07500
C850        C  0.41085029  0.27991787  0.20222048    -0.02700
Br851      Br  0.44549401  0.29235247  0.17962203    -0.01200
Br852      Br  0.47083213  0.30807939  0.23003355    -0.01300
Br853      Br  0.30329168  0.22455083  0.21465791    -0.01200
Br854      Br  0.33723055  0.25770153  0.26191673    -0.01200
C855        C  0.22567883  0.15931836  0.20042131    -0.02400
C856        C  0.24725428  0.14511624  0.19536113     0.07300
C857        C  0.25103681  0.12437957  0.21172272    -0.02500
C858        C  0.23077508  0.11501132  0.23096109    -0.02500
C859        C  0.20481666  0.12398229  0.23381507     0.07500
C860        C  0.20728136  0.15122980  0.22029333    -0.02700
Br861      Br  0.18349758  0.17646469  0.22752905    -0.01200
Br862      Br  0.21884720  0.18879824  0.18023531    -0.01300
Br863      Br  0.24434186  0.09726905  0.25527119    -0.01200
Br864      Br  0.28350041  0.10756807  0.20901209    -0.01200
C865        C  0.46118937  0.10221502  0.04075360    -0.02400
C866        C  0.43859632  0.08163984  0.02369780     0.07300
C867        C  0.43250016  0.04759616  0.02151175    -0.02500
C868        C  0.43844062  0.03154043  0.03937829    -0.02500
C869        C  0.45340238  0.05013567  0.05859039     0.07500
C870        C  0.46756582  0.08627706  0.05835410    -0.02700
Br871      Br  0.49391120  0.11444753  0.08279281    -0.01200
Br872      Br  0.47952421  0.15179125  0.04248854    -0.01300
Br873      Br  0.43608978  0.49386539  0.03663889    -0.01200
Br874      Br  0.42498168  0.02615826  0.99324614    -0.01200
C875        C  0.38983137  0.16317497  0.05269620    -0.02400
C876        C  0.36775747  0.13066978  0.04359410     0.07300
C877        C  0.34295830  0.10427818  0.05715002    -0.02500
C878        C  0.34012136  0.11067838  0.07925513    -0.02500
C879        C  0.36290983  0.14330656  0.08847332     0.07500
C880        C  0.38898000  0.16878629  0.07514159    -0.02700
Br881      Br  0.42563334  0.21065985  0.08716872    -0.01200
Br882      Br  0.42412720  0.19905730  0.03457819    -0.01300
Br883      Br  0.30779961  0.07269868  0.09730049    -0.01200
Br884      Br  0.31647181  0.05746150  0.04633045    -0.01200
C885        C  0.41662758  0.40633076  0.02219722    -0.02400
C886        C  0.43798745  0.39604843  0.01103739     0.07300
C887        C  0.47226558  0.41102786  0.01909165    -0.02500
C888        C  0.48032520  0.42380006  0.04071408    -0.02500
C889        C  0.45490716  0.42549135  0.05392621     0.07500
C890        C  0.42232138  0.41528555  0.04434494    -0.02700
Br891      Br  0.38307555  0.40853318  0.06166417    -0.01200
Br892      Br  0.37971529  0.40874844  0.00759145    -0.01300
Br893      Br  0.02231557  0.43872102  0.05089962    -0.01200
Br894      Br  0.50933650  0.42161492  0.99889015    -0.01200
C895        C  0.35130228  0.27818317  0.08296274    -0.02400
C896        C  0.37636621  0.27385135  0.09463789     0.07300
C897        C  0.40772314  0.28243397  0.08396857    -0.02500
C898        C  0.41081026  0.28681313  0.06118400    -0.02500
C899        C  0.38428283  0.28737109  0.04891744     0.07500
C900        C  0.35606140  0.28624748  0.06051327    -0.02700
Br901      Br  0.32578908  0.29962418  0.04635267    -0.01200
Br902      Br  0.30981896  0.27246392  0.09693680    -0.01300
Br903      Br  0.45320409  0.29574053  0.04701468    -0.01200
Br904      Br  0.44801764  0.29379802  0.10125833    -0.01200
C905        C  0.12835445  0.10708109  0.04865173    -0.02400
C906        C  0.12779314  0.08970903  0.02913328     0.07300
C907        C  0.09711836  0.05890918  0.02434225    -0.02500
C908        C  0.07265584  0.04225041  0.04102077    -0.02500
C909        C  0.08070908  0.05440908  0.06258543     0.07500
C910        C  0.10916183  0.08743109  0.06631679    -0.02700
Br911      Br  0.12486078  0.10487775  0.09537157    -0.01200
Br912      Br  0.15902714  0.15611968  0.05262264    -0.01300
Br913      Br  0.02026017  0.51195638  0.03124608    -0.01200
Br914      Br  0.08459931  0.04458866  0.99462639    -0.01200
C915        C  0.23374824  0.10028123  0.06275806    -0.02400
C916        C  0.24696937  0.12443629  0.04557114     0.07300
C917        C  0.27817800  0.15440796  0.04921160    -0.02500
C918        C  0.28787646  0.16532074  0.07081881    -0.02500
C919        C  0.26605599  0.14664028  0.08858229     0.07500
C920        C  0.24034935  0.11205533  0.08432875    -0.02700
Br921      Br  0.21252279  0.08045838  0.10695736    -0.01200
Br922      Br  0.20330552  0.05212287  0.05614265    -0.01300
Br923      Br  0.33404850  0.19999074  0.07539151    -0.01200
Br924      Br  0.31173519  0.17230201  0.02594024    -0.01200
C925        C  0.23978103  0.37134953  0.70494891    -0.02400
C926        C  0.24518821  0.39436050  0.72260792     0.07300
C927        C  0.26433764  0.43037132  0.71830104    -0.02500
C928        C  0.28054769  0.44191547  0.69803816    -0.02500
C929        C  0.28463375  0.41852617  0.68434383     0.07500
C930        C  0.25892088  0.38394653  0.68558055    -0.02700
Br931      Br  0.24505157  0.35710291  0.65923818    -0.01200
Br932      Br  0.20623053  0.32297687  0.70592646    -0.01300
Br933      Br  0.29984387  0.49001114  0.69045528    -0.01200
Br934      Br  0.27218638  0.46522528  0.73987371    -0.01200
C935        C  0.13677545  0.23581633  0.72642165    -0.02400
C936        C  0.12830302  0.26245786  0.72588950     0.07300
C937        C  0.11482984  0.26791590  0.70635741    -0.02500
C938        C  0.10431679  0.24329770  0.68938222    -0.02500
C939        C  0.10864735  0.21422335  0.69166439     0.07500
C940        C  0.13194940  0.21581024  0.70792840    -0.02700
Br941      Br  0.15350707  0.18727995  0.70692541    -0.01200
Br942      Br  0.15005502  0.22215889  0.75299951    -0.01300
Br943      Br  0.09238986  0.25360393  0.66146592    -0.01200
Br944      Br  0.11280891  0.30967477  0.70197780    -0.01200
C945        C  0.06167316  0.37817704  0.71514139    -0.02400
C946        C  0.08133923  0.39820446  0.69709753     0.07300
C947        C  0.11465213  0.40283565  0.69417577    -0.02500
C948        C  0.13142507  0.39698804  0.71161073    -0.02500
C949        C  0.11392376  0.38441727  0.73176474     0.07500
C950        C  0.07863728  0.37493315  0.73328187    -0.02700
Br951      Br  0.05392959  0.36248601  0.76074265    -0.01200
Br952      Br  0.01174607  0.35763335  0.71616110    -0.01300
Br953      Br  0.17812176  0.40633000  0.70690684    -0.01200
Br954      Br  0.13344887  0.40845335  0.66524690    -0.01200
C955        C  0.09061750  0.12786572  0.87803628    -0.02400
C956        C  0.07089824  0.13166151  0.89488432     0.07300
C957        C  0.03716807  0.10400154  0.89796072    -0.02500
C958        C  0.02074540  0.07985952  0.88102078    -0.02500
C959        C  0.03792775  0.08362914  0.86085787     0.07500
C960        C  0.07374704  0.10772296  0.85981734    -0.02700
Br961      Br  0.10009315  0.11743270  0.83309334    -0.01200
Br962      Br  0.14045405  0.15176506  0.87882941    -0.01300
Br963      Br  0.47830418  0.03777249  0.88848139    -0.01200
Br964      Br  0.01739910  0.09447855  0.92674292    -0.01200
C965        C  0.09165354  0.24727295  0.85712938    -0.02400
C966        C  0.11812024  0.24833671  0.87055687     0.07300
C967        C  0.14863440  0.25272097  0.86025442    -0.02500
C968        C  0.15280443  0.25711283  0.83764719    -0.02500
C969        C  0.12970674  0.26291566  0.82532547     0.07500
C970        C  0.09795229  0.25621395  0.83498216    -0.02700
Br971      Br  0.06105552  0.25584300  0.81819794    -0.01200
Br972      Br  0.04412807  0.22569720  0.86732605    -0.01300
Br973      Br  0.18595376  0.24830540  0.82280393    -0.01200
Br974      Br  0.18186953  0.24551620  0.87605993    -0.01200
C975        C  0.40028738  0.44857893  0.90036671    -0.02400
C976        C  0.37697436  0.46126738  0.90216579     0.07300
C977        C  0.38217467  0.48746652  0.88700183    -0.02500
C978        C  0.39710065  0.48891112  0.86649487    -0.02500
C979        C  0.41591199  0.47121321  0.86280272     0.07500
C980        C  0.41908768  0.45281794  0.88079904    -0.02700
Br981      Br  0.44956150  0.43376237  0.87989748    -0.01200
Br982      Br  0.41482842  0.43602526  0.92660360    -0.01300
Br983      Br  0.38851079  0.51367812  0.84375190    -0.01200
Br984      Br  0.37168740  0.52344579  0.89432102    -0.01200
C985        C  0.25226464  0.41893915  0.84004381    -0.02400
C986        C  0.24716368  0.38943599  0.82817688     0.07300
C987        C  0.25334334  0.36480062  0.83877169    -0.02500
C988        C  0.25965619  0.36713695  0.86130418    -0.02500
C989        C  0.26240293  0.39537560  0.87343282     0.07500
C990        C  0.26086588  0.42227231  0.86220324    -0.02700
Br991      Br  0.27765179  0.46701489  0.87584129    -0.01200
Br992      Br  0.25194726  0.45754258  0.82580474    -0.01300
Br993      Br  0.27045381  0.33441196  0.87474227    -0.01200
Br994      Br  0.25717074  0.32962893  0.82264373    -0.01200
C995        C  0.05054802  0.46108217  0.89861888    -0.02400
C996        C  0.04438648  0.42690488  0.89771884     0.07300
C997        C  0.02160988  0.40550247  0.88123917    -0.02500
C998        C  0.01803294  0.42032228  0.86197005    -0.02500
C999        C  0.02904814  0.45601122  0.86108738     0.07500
C1000       C  0.04339784  0.47585553  0.88032669    -0.02700
Br1001     Br  0.06215028  0.02333290  0.87733765    -0.01200
Br1002     Br  0.05936790  0.48371346  0.92646735    -0.01300
Br1003     Br  0.49335324  0.38638853  0.84411183    -0.01200
Br1004     Br  0.99878530  0.35581597  0.88367875    -0.01200
C1005       C  0.13556071  0.40938840  0.83973654    -0.02400
C1006       C  0.13665261  0.37918826  0.83449944     0.07300
C1007       C  0.14247477  0.36158981  0.85175924    -0.02500
C1008       C  0.13659369  0.36731113  0.87355723    -0.02500
C1009       C  0.12810397  0.39310707  0.87790881     0.07500
C1010       C  0.13626099  0.41837672  0.86158601    -0.02700
Br1011     Br  0.14791669  0.46483105  0.86949907    -0.01200
Br1012     Br  0.13019575  0.43726348  0.81789136    -0.01300
Br1013     Br  0.14918183  0.34703100  0.89693105    -0.01200
Br1014     Br  0.16636952  0.33684529  0.84640573    -0.01200
C1015       C  0.06706342  0.91768819  0.91403289     0.86000
C1016       C  0.10255482  0.94465252  0.92440194    -0.54300
C1017       C  0.12441239  0.93208346  0.93001289     0.08900
C1018       C  0.10864079  0.89325438  0.92367576     0.19900
C1019       C  0.07756761  0.90282636  0.89510463    -0.55000
C1020       C  0.10145535  0.89319342  0.89885277     0.09000
C1021       C  0.05185255  0.88852612  0.93068473    -0.54500
C1022       C  0.07180123  0.87369942  0.93517426     0.09600
H1023       H  0.11120161  0.97173416  0.92628726     0.14100
H1024       H  0.12546027  0.88243441  0.92796823    -0.00200
H1025       H  0.06891699  0.90319426  0.87865860     0.14400
H1026       H  0.02588414  0.87850404  0.93710409     0.14200
C1027       C  0.34153823  0.93785213  0.91573026     0.86000
C1028       C  0.32933458  0.90426630  0.92889154    -0.54300
C1029       C  0.29395774  0.88192778  0.92972048     0.08900
C1030       C  0.27423479  0.90020742  0.91963928     0.19900
C1031       C  0.32220352  0.92577761  0.89438070    -0.55000
C1032       C  0.28767248  0.90720910  0.89581618     0.09000
C1033       C  0.32474838  0.95583157  0.92787929    -0.54500
C1034       C  0.28955715  0.93709482  0.93013575     0.09600
H1035       H  0.34762137  0.89957032  0.93740050     0.14100
H1036       H  0.24599931  0.88657732  0.92167313    -0.00200
H1037       H  0.33497776  0.93197622  0.87863568     0.14400
H1038       H  0.33953741  0.98147700  0.93455452     0.14200
C1039       C  0.08448927  0.67134106  0.90594347     0.86000
C1040       C  0.05874783  0.67918489  0.91856517    -0.54300
C1041       C  0.07150333  0.71299356  0.92548759     0.08900
C1042       C  0.10993394  0.73610893  0.91731916     0.19900
C1043       C  0.09385120  0.69537511  0.88711440    -0.55000
C1044       C  0.10761815  0.72894199  0.89202703     0.09000
C1045       C  0.11703761  0.68570142  0.91945311    -0.54500
C1046       C  0.13135763  0.71919097  0.92637444     0.09600
H1047       H  0.03140569  0.66115831  0.91837036     0.14100
H1048       H  0.12046328  0.76338539  0.92206381    -0.00200
H1049       H  0.08998105  0.68639552  0.87032803     0.14400
H1050       H  0.12910791  0.67011962  0.92186365     0.14200
O1051       O  0.16854941  0.89743599  0.75511494    -0.82300
C1052       C  0.14057321  0.78286609  0.80598249     0.97100
O1053       O  0.11972967  0.78393526  0.79278735    -0.71400
O1054       O  0.12336391  0.84089977  0.80705978    -0.75000
Al1055     Al  0.12417040  0.82401290  0.77867569     1.49000
C1056       C  0.13927309  0.87195186  0.81321491     0.92300
O1057       O  0.21569994  0.89508571  0.80462778    -0.81200
O1058       O  0.21837513  0.85026874  0.75168232    -0.74800
Al1059     Al  0.19115262  0.89388965  0.77987940     1.90100
O1060       O  0.23099957  0.85710192  0.79615415    -0.73900
O1061       O  0.16289384  0.79183972  0.75736343    -0.73700
O1062       O  0.17258245  0.80061244  0.80233043    -0.79400
O1063       O  0.12211976  0.80438682  0.75086176    -0.77600
O1064       O  0.17011549  0.84822374  0.77824944    -1.13700
O1065       O  0.11708188  0.85800465  0.76412290    -0.72900
C1066       C  0.13683953  0.88141965  0.75116167     0.97800
C1067       C  0.23238166  0.87997802  0.80892239     0.94200
Al1068     Al  0.19433216  0.82649104  0.77693782     1.55600
O1069       O  0.15910279  0.89542506  0.80019743    -0.77500
C1070       C  0.13824922  0.78871278  0.74558477     0.98400
C1071       C  0.23155060  0.88181588  0.74726661     0.93300
O1072       O  0.22722293  0.90145569  0.76011611    -0.82800
N1073       N  0.28753020  0.50775621  0.96196769    -0.37100
N1074       N  0.26540679  0.55705378  0.97609172    -0.57700
N1075       N  0.19342252  0.50739251  0.96209357    -0.37100
N1076       N  0.21883767  0.96093002  0.94453392    -0.57700
C1077       C  0.31719222  0.53093951  0.97231631     0.26500
C1078       C  0.28705958  0.97743160  0.95807624     0.26500
C1079       C  0.18789860  0.53271229  0.97063675     0.26500
C1080       C  0.16587504  0.97974206  0.95608706     0.26500
C1081       C  0.29778718  0.57235472  0.98521460     0.35100
C1082       C  0.24673991  0.56941561  0.98696729     0.35100
C1083       C  0.23790887  0.94927667  0.93364412     0.35100
C1084       C  0.18952671  0.95101691  0.93286529     0.35100
C1085       C  0.33902242  0.51705080  0.97230104    -0.22400
C1086       C  0.30428459  0.97187837  0.97474645    -0.22400
C1087       C  0.15402264  0.52384133  0.96620175    -0.22400
C1088       C  0.14116566  0.97549876  0.97121187    -0.22400
C1089       C  0.29872140  0.59416623  0.00127109    -0.23500
C1090       C  0.26691883  0.59028293  0.00322143    -0.23500
C1091       C  0.22084242  0.93240709  0.91499559    -0.23500
C1092       C  0.19095775  0.93433205  0.91436929    -0.23400
C1093       C  0.32461562  0.56325929  0.98256687    -0.18800
C1094       C  0.27020767  0.95381842  0.94093614    -0.18800
C1095       C  0.16091105  0.95508671  0.93957202    -0.18800
C1096       C  0.21173803  0.56225188  0.98343293    -0.18800
H1097       H  0.36625086  0.52968224  0.97509343     0.14100
H1098       H  0.30482052  0.94832244  0.97814020     0.14100
H1099       H  0.14125591  0.53872671  0.96888922     0.14100
H1100       H  0.11605196  0.95283730  0.97345646     0.14100
H1101       H  0.31811801  0.60832575  0.01289814     0.12400
H1102       H  0.25910071  0.59884039  0.01695008     0.12400
H1103       H  0.22905796  0.92066150  0.90273910     0.12400
H1104       H  0.17323733  0.92588509  0.90124886     0.12400
H1105       H  0.26840121  0.51261317  0.95632358     0.25700
H1106       H  0.21638986  0.50679515  0.96263205     0.25600
C1107       C  0.15987360  0.59873774  0.01758844     0.86000
C1108       C  0.16607253  0.57308272  0.00366023    -0.54300
C1109       C  0.19920064  0.58567870  0.99520464     0.08900
C1110       C  0.22317142  0.62436632  0.00300546     0.19900
C1111       C  0.18656371  0.60847148  0.03505461    -0.55000
C1112       C  0.21963512  0.62109671  0.02868521     0.09000
C1113       C  0.17231411  0.63135820  0.00459706    -0.54500
C1114       C  0.20459068  0.64537967  0.99589414     0.09600
H1115       H  0.14736871  0.54584943  0.00385169     0.14100
H1116       H  0.24999531  0.63658934  0.99675121    -0.00200
H1117       H  0.17916649  0.60444030  0.05208798     0.14400
H1118       H  0.15703078  0.64418585  0.00432710     0.14200
C1119       C  0.41719515  0.85528345  0.00473968     0.86000
C1120       C  0.38339423  0.83897373  0.99201258    -0.54300
C1121       C  0.36597584  0.80367057  0.99069699     0.08900
C1122       C  0.38647553  0.78765029  0.00286957     0.19900
C1123       C  0.40851926  0.83711842  0.02652300    -0.55000
C1124       C  0.39206449  0.80280576  0.02633653     0.09000
C1125       C  0.43818431  0.84141312  0.99262696    -0.54500
C1126       C  0.42428956  0.80592895  0.99238601     0.09600
H1127       H  0.37428250  0.85437101  0.98394429     0.14100
H1128       H  0.37333297  0.75922875  0.00317421    -0.00200
H1129       H  0.41519202  0.85073444  0.04192804     0.14400
H1130       H  0.46095967  0.85850363  0.98352237     0.14200
C1131       C  0.41256302  0.59857635  0.01583302     0.86000
C1132       C  0.43320575  0.62838914  0.00036353    -0.54300
C1133       C  0.41606842  0.64313987  0.99060250     0.08900
C1134       C  0.37771522  0.62600967  0.99929485     0.19900
C1135       C  0.39821575  0.61246996  0.03252110    -0.55000
C1136       C  0.38056465  0.62730878  0.02489161     0.09000
C1137       C  0.37911930  0.57258342  0.00397553    -0.54500
C1138       C  0.36039821  0.58607517  0.99405040     0.09600
H1139       H  0.46092302  0.63904591  0.99930057     0.14100
H1140       H  0.36339200  0.63823376  0.99300450    -0.00200
H1141       H  0.40092353  0.60984510  0.04989644     0.14400
H1142       H  0.36775559  0.54539963  0.00760116     0.14200
O1143       O  0.37883567  0.68664848  0.16943106    -0.82300
C1144       C  0.27386783  0.66387402  0.11258009     0.97100
O1145       O  0.26918718  0.64395980  0.12821372    -0.71400
O1146       O  0.32493558  0.64390715  0.11695713    -0.75000
Al1147     Al  0.30674305  0.64594245  0.14389304     1.49000
C1148       C  0.35584331  0.65791655  0.11071377     0.92300
O1149       O  0.38272961  0.73913327  0.11933151    -0.81200
O1150       O  0.33232476  0.73840708  0.17127513    -0.74800
Al1151     Al  0.37790180  0.71144137  0.14402089     1.90100
O1152       O  0.34461623  0.75458819  0.12732369    -0.73900
O1153       O  0.27203536  0.68377483  0.16264469    -0.73700
O1154       O  0.28939109  0.69601897  0.11651175    -0.79400
O1155       O  0.28627832  0.64504285  0.17091479    -0.77600
O1156       O  0.33222653  0.69161112  0.14432125    -1.13700
O1157       O  0.33789466  0.63679009  0.15941879    -0.72900
C1158       C  0.36075545  0.65476112  0.17298479     0.97800
C1159       C  0.36885489  0.75727340  0.11529801     0.94200
Al1160     Al  0.31093266  0.71638157  0.14443465     1.55600
O1161       O  0.37967263  0.67937474  0.12302413    -0.77500
C1162       C  0.26969295  0.66034189  0.17550754     0.98400
C1163       C  0.36356534  0.74996698  0.17676635     0.93300
O1164       O  0.38399308  0.74634473  0.16411850    -0.82800
N1165       N  0.49924898  0.80373276  0.96309131    -0.37100
N1166       N  0.04847552  0.78017089  0.94789072    -0.57700
N1167       N  0.49155787  0.70854083  0.95409493    -0.37100
N1168       N  0.44982170  0.73605338  0.97973826    -0.57700
C1169       C  0.03059973  0.83195562  0.96342627     0.26500
C1170       C  0.48242149  0.80995232  0.97954020     0.26500
C1171       C  0.01826645  0.70381280  0.94942944     0.26500
C1172       C  0.46636221  0.67939492  0.96394054     0.26500
C1173       C  0.05732933  0.81042444  0.93756209     0.35100
C1174       C  0.05736537  0.76158876  0.93427657     0.35100
C1175       C  0.43115102  0.75291042  0.98011545     0.35100
C1176       C  0.42730294  0.70207765  0.97617218     0.35100
C1177       C  0.03398163  0.85490967  0.97964703    -0.22400
C1178       C  0.50555460  0.84117940  0.98916248    -0.22400
C1179       C  0.00799741  0.66987408  0.95432584    -0.22400
C1180       C  0.47446005  0.65337477  0.96042641    -0.22400
C1181       C  0.06989827  0.81004072  0.91727168    -0.23500
C1182       C  0.07174369  0.78037718  0.91565269    -0.23500
C1183       C  0.39688901  0.72964622  0.97582307    -0.23500
C1184       C  0.39447099  0.69768059  0.97338204    -0.23400
C1185       C  0.05492123  0.83854512  0.94652562    -0.18800
C1186       C  0.44588047  0.78915980  0.98395840    -0.18800
C1187       C  0.43619639  0.67526684  0.97587525    -0.18800
C1188       C  0.04916163  0.72658068  0.93725449    -0.18800
H1189       H  0.05667177  0.87939910  0.98322135     0.14100
H1190       H  0.50110898  0.85277951  0.00336948     0.14100
H1191       H  0.02247507  0.65641799  0.95295173     0.14100
H1192       H  0.45907729  0.62621684  0.96415675     0.14100
H1193       H  0.07588536  0.82845084  0.90447696     0.12400
H1194       H  0.08144410  0.77331004  0.90178719     0.12400
H1195       H  0.37623925  0.73522743  0.97284926     0.12400
H1196       H  0.37162583  0.67464318  0.96805722     0.12400
H1197       H  0.48791124  0.78363857  0.95184460     0.25700
H1198       H  0.49083835  0.73139014  0.95256178     0.25600
N1199       N  0.20283604  0.71687992  0.96054542    -0.37100
N1200       N  0.27276222  0.73494619  0.97594616    -0.57700
N1201       N  0.29453416  0.80747132  0.96101061    -0.37100
N1202       N  0.22414956  0.78758466  0.94462842    -0.57700
C1203       C  0.19670364  0.68604353  0.96933826     0.26500
C1204       C  0.17194077  0.71288647  0.95337897     0.26500
C1205       C  0.32319440  0.80366996  0.96266627     0.26500
C1206       C  0.30026446  0.83020654  0.94450524     0.26500
C1207       C  0.25319287  0.70635593  0.98801758     0.35100
C1208       C  0.30283377  0.75385196  0.98691694     0.35100
C1209       C  0.19217236  0.77061348  0.93531298     0.35100
C1210       C  0.24180412  0.81945437  0.93522658     0.35100
C1211       C  0.16216433  0.66234833  0.96612494    -0.22400
C1212       C  0.14637187  0.68012336  0.95933487    -0.22400
C1213       C  0.34633023  0.82256129  0.94642921    -0.22400
C1214       C  0.33149157  0.83810906  0.93461924    -0.22400
C1215       C  0.27032172  0.70798244  0.00689996    -0.23500
C1216       C  0.30210122  0.73728010  0.00595188    -0.23500
C1217       C  0.19008027  0.79185624  0.91983287    -0.23500
C1218       C  0.22096318  0.82170349  0.91945356    -0.23400
C1219       C  0.21941885  0.67953166  0.98294557    -0.18800
C1220       C  0.16586128  0.73556428  0.93937940    -0.18800
C1221       C  0.27798659  0.84366091  0.93786723    -0.18800
C1222       C  0.33021941  0.78585396  0.97960262    -0.18800
H1223       H  0.14854733  0.63487936  0.96906686     0.14100
H1224       H  0.11866655  0.66885497  0.95786226     0.14100
H1225       H  0.37115615  0.82444196  0.94325182     0.14100
H1226       H  0.34234515  0.85297167  0.91995977     0.14100
H1227       H  0.25994498  0.69091811  0.02061815     0.12400
H1228       H  0.32143072  0.74569956  0.01843217     0.12400
H1229       H  0.17049371  0.78602860  0.90789637     0.12400
H1230       H  0.22790934  0.83970925  0.90630696     0.12400
H1231       H  0.22671473  0.73904565  0.95910885     0.25700
H1232       H  0.27380505  0.79774668  0.97191353     0.25600
C1233       C  0.49199526  0.74744226  0.34504651     0.86000
C1234       C  0.50575358  0.72804668  0.33201269    -0.54300
C1235       C  0.03694792  0.74623773  0.32334372     0.08900
C1236       C  0.05338145  0.78488565  0.33172097     0.19900
C1237       C  0.01460575  0.76075646  0.36227357    -0.55000
C1238       C  0.04795075  0.78247869  0.35692953     0.09000
C1239       C  0.49721997  0.77830645  0.33038601    -0.54500
C1240       C  0.02870761  0.79907938  0.32424884     0.09600
H1241       H  0.49073509  0.70018109  0.33040710     0.14100
H1242       H  0.08041898  0.80052700  0.32622701    -0.00200
H1243       H  0.00612700  0.75623648  0.37912606     0.14400
H1244       H  0.47612423  0.78238740  0.32669635     0.14200
C1245       C  0.25270280  0.74914350  0.33767511     0.86000
C1246       C  0.26865683  0.78268719  0.32471927    -0.54300
C1247       C  0.24929093  0.79883656  0.32325950     0.08900
C1248       C  0.21318799  0.77749174  0.33511274     0.19900
C1249       C  0.24233548  0.75747162  0.35937586    -0.55000
C1250       C  0.22309079  0.77299064  0.35864763     0.09000
C1251       C  0.21789931  0.72667819  0.32588436    -0.54500
C1252       C  0.19519536  0.73954856  0.32527651     0.09600
H1253       H  0.29378603  0.79300425  0.31714933     0.14100
H1254       H  0.19710318  0.78996215  0.33409538    -0.00200
H1255       H  0.25058246  0.75222093  0.37483704     0.14400
H1256       H  0.21309533  0.70379520  0.31734114     0.14200
C1257       C  0.24157140  0.51244081  0.33470282     0.86000
C1258       C  0.21044134  0.49819352  0.31951897    -0.54300
C1259       C  0.18908307  0.95816817  0.31894593     0.08900
C1260       C  0.20767008  0.94095675  0.33117416     0.19900
C1261       C  0.22492730  0.98673200  0.35760218    -0.55000
C1262       C  0.20998332  0.95251388  0.35539871     0.09000
C1263       C  0.26477753  0.49911081  0.32444039    -0.54500
C1264       C  0.24578466  0.96050849  0.32314443     0.09600
H1265       H  0.20266750  0.51498633  0.31170725     0.14100
H1266       H  0.19548513  0.91285608  0.32839701    -0.00200
H1267       H  0.23005231  0.99835150  0.37371846     0.14400
H1268       H  0.29172002  0.51525220  0.32049005     0.14200
O1269       O  0.11888592  0.79321920  0.49561949    -0.82300
C1270       C  0.19921911  0.90580571  0.44400191     0.97100
O1271       O  0.17874265  0.90630643  0.45811039    -0.71400
O1272       O  0.12519492  0.84998090  0.44708262    -0.75000
Al1273     Al  0.14463215  0.86645071  0.47393984     1.49000
C1274       C  0.11263654  0.82015370  0.43950282     0.92300
O1275       O  0.16998805  0.79581328  0.44808929    -0.81200
O1276       O  0.21572069  0.84534614  0.49932172    -0.74800
Al1277     Al  0.14589851  0.79788365  0.47179007     1.90100
O1278       O  0.22212034  0.83606396  0.45538838    -0.73900
O1279       O  0.21696233  0.90356312  0.49327820    -0.73700
O1280       O  0.21502153  0.88961594  0.44803793    -0.79400
O1281       O  0.16244618  0.88486190  0.50083902    -0.77600
O1282       O  0.16811925  0.84344870  0.47326861    -1.13700
O1283       O  0.10467851  0.83264216  0.48978526    -0.72900
C1284       C  0.10132700  0.80706136  0.50041405     0.97800
C1285       C  0.20156812  0.81027772  0.44414843     0.94200
Al1286     Al  0.21396658  0.86700143  0.47394403     1.55600
O1287       O  0.11322116  0.79599998  0.45012730    -0.77500
C1288       C  0.19368798  0.90319120  0.50553664     0.98400
C1289       C  0.20015359  0.81381716  0.50411702     0.93300
O1290       O  0.17526500  0.79211922  0.49260623    -0.82800
C1291       C  0.16747760  0.60292955  0.24199754     0.86000
C1292       C  0.15843962  0.56844802  0.25360518    -0.54300
C1293       C  0.12354042  0.54477520  0.25598470     0.08900
C1294       C  0.10104197  0.56090204  0.24804690     0.19900
C1295       C  0.14613157  0.59121019  0.22134215    -0.55000
C1296       C  0.11206134  0.56996668  0.22387862     0.09000
C1297       C  0.15011515  0.61747797  0.25667145    -0.54500
C1298       C  0.11530141  0.59695347  0.25981333     0.09600
H1299       H  0.17767193  0.56432657  0.26098505     0.14100
H1300       H  0.07318071  0.54373697  0.25082053    -0.00200
H1301       H  0.15748836  0.59893345  0.20520417     0.14400
H1302       H  0.16470331  0.64270426  0.26410614     0.14200
C1303       C  0.41359020  0.83349173  0.24713431     0.86000
C1304       C  0.38806469  0.84202643  0.25918781    -0.54300
C1305       C  0.39879366  0.87672893  0.26210470     0.08900
C1306       C  0.43763735  0.89937067  0.25372845     0.19900
C1307       C  0.42394915  0.85572999  0.22670949    -0.55000
C1308       C  0.43405525  0.88944273  0.22894238     0.09000
C1309       C  0.44497849  0.84929651  0.26135116    -0.54500
C1310       C  0.45964874  0.88384174  0.26461737     0.09600
H1311       H  0.36424584  0.82179423  0.26553591     0.14100
H1312       H  0.45029297  0.92718418  0.25725186    -0.00200
H1313       H  0.42137420  0.84461432  0.21069213     0.14400
H1314       H  0.45570972  0.83398397  0.26776187     0.14200
C1315       C  0.39847571  0.58919333  0.23914768     0.86000
C1316       C  0.43436130  0.61314488  0.24912648    -0.54300
C1317       C  0.45284521  0.59763432  0.25639934     0.08900
C1318       C  0.43331743  0.55806130  0.24978487     0.19900
C1319       C  0.40822031  0.57420063  0.22026893    -0.55000
C1320       C  0.42634271  0.55842734  0.22494081     0.09000
C1321       C  0.37983014  0.55923880  0.25547026    -0.54500
C1322       C  0.39565237  0.53976534  0.25976657     0.09600
H1323       H  0.44674024  0.64069041  0.24673627     0.14100
H1324       H  0.44838728  0.54571499  0.25466044    -0.00200
H1325       H  0.40294182  0.57762521  0.20346003     0.14400
H1326       H  0.35521917  0.55398523  0.26211032     0.14200
O1327       O  0.49527529  0.55569960  0.08395161    -0.82300
C1328       C  0.45722885  0.93936475  0.13987944     0.97100
O1329       O  0.43519673  0.93787185  0.12617355    -0.71400
O1330       O  0.44094224  0.49955067  0.13230026    -0.75000
Al1331     Al  0.44032476  0.97468174  0.10669377     1.49000
C1332       C  0.45454994  0.53014564  0.13851825     0.92300
O1333       O  0.02911637  0.54827104  0.13559241    -0.81200
O1334       O  0.03527076  0.50523179  0.08112966    -0.74800
Al1335     Al  0.00694722  0.54784490  0.10970492     1.90100
O1336       O  0.04864940  0.51405406  0.12569142    -0.73900
O1337       O  0.47914317  0.93809199  0.08854468    -0.73700
O1338       O  0.48862893  0.95265913  0.13426750    -0.79400
O1339       O  0.44018713  0.95237670  0.08104833    -0.77600
O1340       O  0.49200022  0.50548960  0.10776815    -1.13700
O1341       O  0.44167669  0.51404223  0.08806023    -0.72900
C1342       C  0.46424057  0.54086027  0.07829100     0.97800
C1343       C  0.04862093  0.53576420  0.13894315     0.94200
Al1344     Al  0.01566741  0.98123621  0.10796841     1.55600
O1345       O  0.47772193  0.55326267  0.12694101    -0.77500
C1346       C  0.45592807  0.93656497  0.07599427     0.98400
C1347       C  0.05024361  0.53773564  0.07900621     0.93300
O1348       O  0.04506889  0.55596960  0.09249094    -0.82800
N1349       N  0.03113716  0.67431032  0.28784542    -0.37100
N1350       N  0.04495556  0.62062677  0.27468594    -0.57700
N1351       N  0.11979630  0.66840135  0.29164990    -0.37100
N1352       N  0.10458765  0.72095026  0.30631156    -0.57700
C1353       C  0.00008266  0.65285763  0.27787994     0.26500
C1354       C  0.03133167  0.70392539  0.29388352     0.26500
C1355       C  0.11364212  0.63537322  0.28947734     0.26500
C1356       C  0.14391393  0.68391446  0.30768568     0.26500
C1357       C  0.01413685  0.60811304  0.26423408     0.35100
C1358       C  0.06269945  0.60637706  0.26526451     0.35100
C1359       C  0.08443887  0.73090924  0.31737238     0.35100
C1360       C  0.13346417  0.73055832  0.31856849     0.35100
C1361       C  0.47804267  0.66415620  0.28208508    -0.22400
C1362       C  0.00120873  0.70216637  0.28649467    -0.22400
C1363       C  0.13284837  0.62943121  0.30467512    -0.22400
C1364       C  0.15075227  0.65929202  0.31658518    -0.22400
C1365       C  0.01266379  0.58538891  0.24831527    -0.23500
C1366       C  0.04304918  0.58475161  0.24871351    -0.23500
C1367       C  0.09921800  0.74430102  0.33716833    -0.23500
C1368       C  0.13048574  0.74521386  0.33768983    -0.23400
C1369       C  0.98934831  0.61970530  0.26723719    -0.18800
C1370       C  0.05298354  0.72846422  0.31009975    -0.18800
C1371       C  0.15780949  0.71881890  0.31556765    -0.18800
C1372       C  0.09579010  0.61221362  0.27200811    -0.18800
H1373       H  0.45036280  0.65145034  0.28100540     0.14100
H1374       H  0.48697524  0.71406860  0.29297787     0.14100
H1375       H  0.13355684  0.60571574  0.30700190     0.14100
H1376       H  0.16575241  0.66169336  0.33090259     0.14100
H1377       H  0.99333483  0.57210852  0.23621140     0.12400
H1378       H  0.04956947  0.57080376  0.23713251     0.12400
H1379       H  0.08772279  0.75102352  0.35042697     0.12400
H1380       H  0.14724868  0.75285848  0.35158411     0.12400
H1381       H  0.05000825  0.66843569  0.29251639     0.25700
H1382       H  0.11070963  0.68046676  0.28116202     0.25600
N1383       N  0.32280970  0.96610018  0.29514672    -0.37100
N1384       N  0.36963709  0.94350821  0.27837435    -0.57700
N1385       N  0.32210388  0.87168542  0.29436266    -0.37100
N1386       N  0.27249251  0.89265311  0.30995760    -0.57700
C1387       C  0.33873051  0.98820756  0.27823682     0.26500
C1388       C  0.29048081  0.96210013  0.29716202     0.26500
C1389       C  0.33943730  0.86683079  0.27763938     0.26500
C1390       C  0.29053156  0.84262711  0.29591667     0.26500
C1391       C  0.38589763  0.97623584  0.26972953     0.35100
C1392       C  0.38456815  0.92603791  0.26909631     0.35100
C1393       C  0.26024993  0.91102304  0.32068987     0.35100
C1394       C  0.25990791  0.86177062  0.32025128     0.35100
C1395       C  0.31570002  0.49141677  0.26619822    -0.22400
C1396       C  0.28507911  0.98016277  0.28100333    -0.22400
C1397       C  0.31719807  0.83575329  0.26752249    -0.22400
C1398       C  0.28704883  0.82004880  0.27946128    -0.22400
C1399       C  0.40984564  0.97797436  0.25469546    -0.23500
C1400       C  0.40706117  0.94647154  0.25349293    -0.23500
C1401       C  0.23996903  0.89158532  0.33798436    -0.23500
C1402       C  0.23995359  0.86073470  0.33780893    -0.23400
C1403       C  0.37380893  0.00092539  0.27084342    -0.18800
C1404       C  0.26605199  0.94400486  0.31385629    -0.18800
C1405       C  0.26580586  0.83488560  0.31285962    -0.18800
C1406       C  0.37435102  0.89022282  0.27098834    -0.18800
H1407       H  0.31765381  0.50108486  0.25016914     0.14100
H1408       H  0.26163968  0.47487083  0.27419605     0.14100
H1409       H  0.32137886  0.82582565  0.25244269     0.14100
H1410       H  0.26467377  0.79518314  0.27615185     0.14100
H1411       H  0.42269916  0.99608365  0.24198009     0.12400
H1412       H  0.41470748  0.93767386  0.23946275     0.12400
H1413       H  0.22658991  0.89836599  0.34986427     0.12400
H1414       H  0.22709701  0.84061460  0.34968241     0.12400
H1415       H  0.33417387  0.95661538  0.30591796     0.25700
H1416       H  0.33239680  0.89219567  0.30536982     0.25600
N1417       N  0.02633902  0.87410587  0.29301864    -0.37100
N1418       N  0.09578867  0.88961756  0.30382403    -0.57700
N1419       N  0.12202006  0.96438675  0.28894827    -0.37100
N1420       N  0.05327963  0.95047521  0.27847213    -0.57700
C1421       C  0.01891954  0.84894695  0.30812336     0.26500
C1422       C  0.99950220  0.88059651  0.29253820     0.26500
C1423       C  0.14919901  0.95855942  0.28996367     0.26500
C1424       C  0.12940594  0.98871186  0.27334685     0.26500
C1425       C  0.07728808  0.86066564  0.31605693     0.35100
C1426       C  0.12717773  0.90788746  0.31370622     0.35100
C1427       C  0.02237489  0.93101158  0.26835993     0.35100
C1428       C  0.07149346  0.97955974  0.26620513     0.35100
C1429       C  0.98789932  0.84143069  0.31819276    -0.22400
C1430       C  0.47781912  0.86320441  0.30771475    -0.22400
C1431       C  0.17342447  0.97804787  0.27440140    -0.22400
C1432       C  0.16279827  0.50259500  0.26257997    -0.22400
C1433       C  0.09626474  0.86264384  0.33394967    -0.23500
C1434       C  0.12775244  0.89095277  0.33213994    -0.23500
C1435       C  0.02212977  0.94613971  0.24923288    -0.23500
C1436       C  0.05181310  0.97726703  0.24830472    -0.23400
C1437       C  0.04149376  0.83590167  0.31437493    -0.18800
C1438       C  0.99404463  0.90001978  0.27620387    -0.18800
C1439       C  0.10799554  0.00307566  0.26739682    -0.18800
C1440       C  0.15475520  0.94013667  0.30672317    -0.18800
H1441       H  0.47949339  0.82985991  0.33270658     0.14100
H1442       H  0.45397113  0.86302154  0.31160450     0.14100
H1443       H  0.20037599  0.48581820  0.27042903     0.14100
H1444       H  0.17433687  0.51776221  0.24813306     0.14100
H1445       H  0.08696500  0.84825403  0.34846091     0.12400
H1446       H  0.14704523  0.89879681  0.34444475     0.12400
H1447       H  0.00379439  0.93433361  0.23634834     0.12400
H1448       H  0.05897147  0.99409345  0.23454266     0.12400
H1449       H  0.04695964  0.88409849  0.28204385     0.25700
H1450       H  0.10161129  0.95504792  0.30006812     0.25600
C1451       C  0.33238857  0.92919089  0.67941803     0.86000
C1452       C  0.33857586  0.90206469  0.66713870    -0.54300
C1453       C  0.37078412  0.91399295  0.65754225     0.08900
C1454       C  0.39485287  0.95379870  0.66389673     0.19900
C1455       C  0.35964700  0.94129630  0.69660960    -0.55000
C1456       C  0.39222228  0.95318082  0.68984039     0.09000
C1457       C  0.34327487  0.95945631  0.66415580    -0.54500
C1458       C  0.37572563  0.97398653  0.65565925     0.09600
H1459       H  0.32256714  0.87506218  0.67086477     0.14100
H1460       H  0.42161089  0.96593479  0.65748233    -0.00200
H1461       H  0.35301509  0.93836390  0.71382866     0.14400
H1462       H  0.32668255  0.97065015  0.66210674     0.14200
C1463       C  0.08271773  0.68260483  0.68002248     0.86000
C1464       C  0.04728539  0.67230718  0.66953853    -0.54300
C1465       C  0.02868549  0.63902437  0.66161030     0.08900
C1466       C  0.04700369  0.61765235  0.66823709     0.21100
C1467       C  0.07205180  0.65781533  0.69863407    -0.55000
C1468       C  0.05336922  0.62416610  0.69358605     0.09000
C1469       C  0.10131528  0.67033782  0.66422871    -0.54500
C1470       C  0.08445522  0.63608454  0.65801517     0.09600
H1471       H  0.03461203  0.68730980  0.67206861     0.14100
H1472       H  0.03189936  0.59067905  0.66282592    -0.00200
H1473       H  0.07812083  0.66647639  0.71543222     0.14400
H1474       H  0.12788887  0.68797175  0.66042400     0.14200
C1475       C  0.07999682  0.92039569  0.68055664     0.86000
C1476       C  0.10371806  0.95626116  0.67059090    -0.54300
C1477       C  0.08774572  0.97258241  0.66120314     0.08900
C1478       C  0.04786338  0.95215649  0.66627504     0.19900
C1479       C  0.06200528  0.92908268  0.69808282    -0.55000
C1480       C  0.04508255  0.94547298  0.69190797     0.09000
C1481       C  0.05154080  0.89985551  0.66363758    -0.54500
C1482       C  0.03309770  0.91507425  0.65603826     0.09600
H1483       H  0.13108367  0.97047191  0.67370526     0.14100
H1484       H  0.03521416  0.96596149  0.65949228    -0.00200
H1485       H  0.06353760  0.92358992  0.71516101     0.14400
H1486       H  0.04447389  0.87343648  0.66020726     0.14200
O1487       O  0.03963032  0.50232943  0.83667031    -0.82300
C1488       C  0.42195821  0.97457422  0.77840176     0.97100
O1489       O  0.41698128  0.95145756  0.79215556    -0.71400
O1490       O  0.47225307  0.94897944  0.78295415    -0.75000
Al1491     Al  0.45276784  0.95146338  0.81004840     1.49000
C1492       C  0.00727514  0.95953879  0.78010881     0.92300
O1493       O  0.04143622  0.54848087  0.78479723    -0.81200
O1494       O  0.50274018  0.55381576  0.83447583    -0.74800
Al1495     Al  0.03813268  0.52459231  0.81070562     1.90100
O1496       O  0.51192932  0.56359425  0.78999695    -0.73900
O1497       O  0.44210479  0.50179689  0.82960944    -0.73700
O1498       O  0.45247116  0.50909971  0.78459989    -0.79400
O1499       O  0.43145608  0.95106641  0.83689421    -0.77600
O1500       O  0.49773268  0.50277420  0.80977126    -1.13700
O1501       O  0.48291637  0.94138737  0.82785903    -0.72900
C1502       C  0.01112697  0.96156866  0.84403732     0.97800
C1503       C  0.02776834  0.56638753  0.77985107     0.94200
Al1504     Al  0.47877412  0.52977407  0.80969935     1.55600
O1505       O  0.03887057  0.49026092  0.79213148    -0.77500
C1506       C  0.41907023  0.96977508  0.84291697     0.98400
C1507       C  0.02912653  0.57019283  0.84069806     0.93300
O1508       O  0.04773532  0.56285324  0.82881442    -0.82800
C1509       C  0.23610686  0.49685931  0.57207838     0.86000
C1510       C  0.21755010  0.50826627  0.58840026    -0.54300
C1511       C  0.23445107  0.54228510  0.59478168     0.08900
C1512       C  0.27164540  0.56154728  0.58396110     0.19900
C1513       C  0.24605209  0.52169091  0.55356934    -0.55000
C1514       C  0.26430197  0.55523824  0.55853703     0.09000
C1515       C  0.27193189  0.50727667  0.58177673    -0.54500
C1516       C  0.29100164  0.54052409  0.58974805     0.09600
H1517       H  0.19232823  0.99678715  0.59172708     0.14100
H1518       H  0.28586617  0.58865422  0.58939416    -0.00200
H1519       H  0.24001470  0.51309345  0.53675170     0.14400
H1520       H  0.28457297  0.99549816  0.58017769     0.14200
C1521       C  0.49929276  0.74756600  0.56455834     0.86000
C1522       C  0.48624273  0.71612490  0.57934812    -0.54300
C1523       C  0.45310203  0.70241228  0.58728492     0.08900
C1524       C  0.43519637  0.72270734  0.57783940     0.19900
C1525       C  0.47355757  0.73595631  0.54653583    -0.55000
C1526       C  0.44031845  0.72225156  0.55233845     0.09000
C1527       C  0.49180012  0.77421273  0.57645372    -0.54500
C1528       C  0.45845257  0.76186708  0.58448543     0.09600
H1529       H  0.00381152  0.70907592  0.58499677     0.14100
H1530       H  0.40834138  0.71261893  0.58351941    -0.00200
H1531       H  0.48118478  0.73886307  0.52947650     0.14400
H1532       H  0.01124338  0.80518469  0.57507221     0.14200
C1533       C  0.24844381  0.75801987  0.57009271     0.86000
C1534       C  0.27877448  0.77639366  0.58543839    -0.54300
C1535       C  0.29489593  0.75854881  0.59187334     0.08900
C1536       C  0.27484328  0.71984965  0.58277331     0.19900
C1537       C  0.26209539  0.74546575  0.55189683    -0.55000
C1538       C  0.27272891  0.72295940  0.55716053     0.09000
C1539       C  0.22251492  0.72390392  0.58166451    -0.54500
C1540       C  0.23585209  0.70425282  0.59016305     0.09600
H1541       H  0.28870639  0.80344548  0.58904213     0.14100
H1542       H  0.28714841  0.70473713  0.58802875    -0.00200
H1543       H  0.25927585  0.75089728  0.53502159     0.14400
H1544       H  0.19501846  0.71271925  0.57981518     0.14200
O1545       O  0.37421098  0.66539628  0.41853439    -0.82300
C1546       C  0.29061186  0.69118770  0.47036099     0.97100
O1547       O  0.32217289  0.70766874  0.46495194    -0.71400
O1548       O  0.38045376  0.71055124  0.45387423    -0.75000
Al1549     Al  0.34215062  0.70677048  0.43733791     1.49000
C1550       C  0.38185037  0.68937084  0.46670331     0.92300
O1551       O  0.30504696  0.60060130  0.45682259    -0.81200
O1552       O  0.26417092  0.60380159  0.41715443    -0.74800
Al1553     Al  0.33783759  0.63559172  0.43757008     1.90100
O1554       O  0.26668966  0.61634933  0.46248592    -0.73900
O1555       O  0.27186208  0.66394153  0.41030023    -0.73700
O1556       O  0.26841574  0.67366216  0.45600327    -0.79400
O1557       O  0.31053377  0.71513622  0.42005806    -0.77600
O1558       O  0.31710398  0.66087266  0.43694476    -1.13700
O1559       O  0.36482591  0.70824801  0.41061844    -0.72900
C1560       C  0.37988231  0.69097189  0.40678662     0.97800
C1561       C  0.28245536  0.60120325  0.46901385     0.94200
Al1562     Al  0.27116542  0.64082144  0.43650872     1.55600
O1563       O  0.36325229  0.65748239  0.46310422    -0.77500
C1564       C  0.28974577  0.69547365  0.40575585     0.98400
C1565       C  0.28530445  0.59939834  0.40562887     0.93300
O1566       O  0.31572937  0.61133497  0.41216269    -0.82800
N1567       N  0.46210507  0.83887250  0.61911720    -0.37100
N1568       N  0.43649733  0.88531688  0.63754641    -0.57700
N1569       N  0.36567515  0.83406182  0.62488239    -0.37100
N1570       N  0.39055721  0.78626312  0.60620820    -0.57700
C1571       C  0.49217597  0.86484413  0.62784440     0.26500
C1572       C  0.46882719  0.81493511  0.60926895     0.26500
C1573       C  0.35831585  0.85684375  0.63568488     0.26500
C1574       C  0.33526410  0.80537412  0.61920800     0.26500
C1575       C  0.46880946  0.90027042  0.64660829     0.35100
C1576       C  0.41831511  0.89836118  0.64832743     0.35100
C1577       C  0.40964092  0.77653763  0.59338117     0.35100
C1578       C  0.35919089  0.77482679  0.59632250     0.35100
C1579       C  0.51835791  0.85791355  0.62217982    -0.22400
C1580       C  0.50357333  0.82601187  0.61246235    -0.22400
C1581       C  0.32263697  0.84217878  0.63587637    -0.22400
C1582       C  0.30852202  0.80940154  0.62753721    -0.22400
C1583       C  0.46985763  0.92214597  0.66280506    -0.23500
C1584       C  0.43887344  0.91997447  0.66422986    -0.23500
C1585       C  0.38998343  0.75937516  0.57546529    -0.23500
C1586       C  0.35922878  0.75936972  0.57700733    -0.23400
C1587       C  0.49660150  0.89309109  0.64214347    -0.18800
C1588       C  0.44518542  0.78467281  0.59649490    -0.18800
C1589       C  0.33048684  0.77858534  0.60378566    -0.18800
C1590       C  0.38269700  0.88946170  0.64607638    -0.18800
H1591       H  0.04783481  0.87570869  0.62521139     0.14100
H1592       H  0.51765145  0.81266854  0.60908697     0.14100
H1593       H  0.30722744  0.85372368  0.64001006     0.14100
H1594       H  0.28105849  0.79170239  0.62620487     0.14100
H1595       H  0.48827451  0.93560703  0.67504382     0.12400
H1596       H  0.43201975  0.93031371  0.67762490     0.12400
H1597       H  0.39719656  0.74916578  0.56190478     0.12400
H1598       H  0.33999265  0.75098625  0.56448782     0.12400
H1599       H  0.43881015  0.83737453  0.62023237     0.25700
H1600       H  0.38928375  0.83880934  0.61978523     0.25600
N1601       N  0.20853181  0.61178555  0.61134062    -0.37100
N1602       N  0.15852585  0.63498198  0.62462046    -0.57700
N1603       N  0.10950926  0.56516373  0.64112190    -0.37100
N1604       N  0.16012204  0.54220093  0.62855890    -0.57700
C1605       C  0.21950228  0.64128918  0.59932254     0.26500
C1606       C  0.22140893  0.59263371  0.60163439     0.26500
C1607       C  0.09551626  0.58394541  0.65022946     0.26500
C1608       C  0.09531511  0.53362182  0.65135447     0.26500
C1609       C  0.18383684  0.66508182  0.61563112     0.35100
C1610       C  0.13242935  0.64080058  0.63139138     0.35100
C1611       C  0.18707719  0.53728541  0.62224414     0.35100
C1612       C  0.13533166  0.51211702  0.63794173     0.35100
C1613       C  0.23807480  0.63980968  0.58198230    -0.22400
C1614       C  0.24057082  0.61083369  0.58381669    -0.22400
C1615       C  0.07245865  0.56358890  0.66601748    -0.22400
C1616       C  0.07227504  0.53310214  0.66646504    -0.22400
C1617       C  0.17402052  0.68990375  0.61796993    -0.23500
C1618       C  0.14060153  0.67367124  0.62497573    -0.23500
C1619       C  0.18006453  0.50502019  0.62919432    -0.23500
C1620       C  0.14676702  0.48834942  0.63662753    -0.23400
C1621       C  0.21305958  0.66953362  0.60272532    -0.18800
C1622       C  0.21502056  0.55858765  0.60740559    -0.18800
C1623       C  0.10386355  0.50612316  0.64907255    -0.18800
C1624       C  0.10372117  0.61919338  0.64560001    -0.18800
H1625       H  0.24705406  0.65644689  0.56829274     0.14100
H1626       H  0.25343840  0.60397657  0.57184978     0.14100
H1627       H  0.05900034  0.56977655  0.67804251     0.14100
H1628       H  0.05839418  0.51444936  0.67833800     0.14100
H1629       H  0.18868125  0.71719991  0.61486867     0.12400
H1630       H  0.12472185  0.68577813  0.62571693     0.12400
H1631       H  0.19630573  0.49334957  0.62792597     0.12400
H1632       H  0.13923425  0.96523557  0.63819050     0.12400
H1633       H  0.19458586  0.60594789  0.62582554     0.25700
H1634       H  0.12699590  0.57291391  0.62827800     0.25600
N1635       N  0.44011846  0.56611469  0.63922496    -0.37100
N1636       N  0.45698914  0.63584655  0.62543903    -0.57700
N1637       N  0.38543285  0.60959012  0.60710202    -0.37100
N1638       N  0.36929161  0.54015713  0.61985137    -0.57700
C1639       C  0.47018852  0.58520134  0.65052541     0.26500
C1640       C  0.42243351  0.53407918  0.64856261     0.26500
C1641       C  0.40247215  0.64167828  0.59770006     0.26500
C1642       C  0.35361735  0.59109346  0.59739383     0.26500
C1643       C  0.48812851  0.64368492  0.63454078     0.35100
C1644       C  0.46050010  0.66562785  0.61666647     0.35100
C1645       C  0.36877115  0.51019113  0.62562422     0.35100
C1646       C  0.33830336  0.53146341  0.61014236     0.35100
C1647       C  0.47132442  0.56416374  0.66663243    -0.22400
C1648       C  0.44183736  0.53292855  0.66560206    -0.22400
C1649       C  0.38070820  0.64319842  0.58237741    -0.22400
C1650       C  0.35086923  0.61239397  0.58225626    -0.22400
C1651       C  0.51114966  0.67819667  0.63079720    -0.23500
C1652       C  0.49314624  0.69236183  0.62177701    -0.23500
C1653       C  0.33894166  0.48275742  0.61756860    -0.23500
C1654       C  0.31859465  0.49574630  0.61059934    -0.23400
C1655       C  0.49581629  0.62121940  0.64742652    -0.18800
C1656       C  0.38919684  0.50609721  0.64240720    -0.18800
C1657       C  0.32825294  0.55489272  0.60002443    -0.18800
C1658       C  0.43740391  0.66914025  0.60159880    -0.18800
H1659       H  0.49027144  0.57008676  0.67895275     0.14100
H1660       H  0.43570321  0.51280547  0.67719429     0.14100
H1661       H  0.38559032  0.66268533  0.57060418     0.14100
H1662       H  0.33129880  0.60645386  0.57031911     0.14100
H1663       H  0.03444752  0.69786491  0.63794260     0.12400
H1664       H  0.50417594  0.71955723  0.61829315     0.12400
H1665       H  0.32386486  0.95912691  0.62542148     0.12400
H1666       H  0.29133675  0.47958909  0.60847633     0.12400
H1667       H  0.43260202  0.57391244  0.62536502     0.25700
H1668       H  0.39478832  0.60127705  0.61978233     0.25600
C1669       C  0.29603655  0.69305357  0.53271344    -0.02400
C1670       C  0.26922956  0.69912423  0.53848927     0.07300
C1671       C  0.24236798  0.68984695  0.52286478    -0.02500
C1672       C  0.24878754  0.68797276  0.50048750    -0.02500
C1673       C  0.28048357  0.69071760  0.49392380     0.07500
C1674       C  0.30083998  0.68794415  0.51065182    -0.02700
Br1675     Br  0.32749964  0.66676762  0.50475333    -0.01200
Br1676     Br  0.32012818  0.68317029  0.55504186    -0.01300
Br1677     Br  0.21393626  0.68129766  0.47953405    -0.01200
Br1678     Br  0.19679763  0.67937460  0.53241917    -0.01200
C1679       C  0.41785796  0.73799584  0.52004299    -0.02400
C1680       C  0.41705511  0.71122955  0.53304886     0.07300
C1681       C  0.41246596  0.68117081  0.52197726    -0.02500
C1682       C  0.40875530  0.67852669  0.49920192    -0.02500
C1683       C  0.40177941  0.70143791  0.48753220     0.07500
C1684       C  0.40740237  0.73210260  0.49811741    -0.02700
Br1685     Br  0.40312875  0.76776632  0.48306773    -0.01200
Br1686     Br  0.44259881  0.78559803  0.52983193    -0.01300
Br1687     Br  0.42173865  0.64937008  0.48318575    -0.01200
Br1688     Br  0.41847345  0.64648683  0.53682276    -0.01200
C1689       C  0.30145712  0.57836169  0.52565109    -0.02400
C1690       C  0.27438982  0.57740095  0.53851808     0.07300
C1691       C  0.24743695  0.57938325  0.52734126    -0.02500
C1692       C  0.24885103  0.58475381  0.50463488    -0.02500
C1693       C  0.27703330  0.58777294  0.49207428     0.07500
C1694       C  0.30258047  0.58300138  0.50285969    -0.02700
Br1695     Br  0.33830875  0.57963320  0.48686930    -0.01200
Br1696     Br  0.33298473  0.56505366  0.53822475    -0.01300
Br1697     Br  0.20896601  0.58289300  0.49067217    -0.01200
Br1698     Br  0.20398800  0.56635123  0.54184275    -0.01200
C1699       C  0.05434911  0.98039230  0.72517497    -0.02400
C1700       C  0.02987928  0.95463204  0.71110505     0.07300
C1701       C  0.99955596  0.92750998  0.72108016    -0.02500
C1702       C  0.99256562  0.92830773  0.74352932    -0.02500
C1703       C  0.01659412  0.95488552  0.75710981     0.07500
C1704       C  0.04899023  0.97850956  0.74793378    -0.02700
Br1705     Br  0.08929545  0.00040514  0.76633514    -0.01200
Br1706     Br  0.09989771  0.01282163  0.71423596    -0.01300
Br1707     Br  0.45386758  0.88975178  0.75566141    -0.01200
Br1708     Br  0.47117767  0.88508003  0.70537844    -0.01200
C1709       C  0.01630058  0.60249273  0.72648197    -0.02400
C1710       C  0.04200752  0.60141148  0.71317225     0.07300
C1711       C  0.06743252  0.59621602  0.72369662    -0.02500
C1712       C  0.06466820  0.58811347  0.74601181    -0.02500
C1713       C  0.03624616  0.58453887  0.75835027     0.07500
C1714       C  0.01453804  0.59572234  0.74899279    -0.02700
Br1715     Br  0.98889354  0.61051061  0.76743018    -0.01200
Br1716     Br  0.98808694  0.62072895  0.71502172    -0.01300
Br1717     Br  0.10428207  0.59087426  0.76075024    -0.01200
Br1718     Br  0.11040458  0.60788076  0.70906733    -0.01200
C1719       C  0.43411389  0.98970108  0.71767725    -0.02400
C1720       C  0.41666861  0.95715874  0.70813397     0.07300
C1721       C  0.40497988  0.92867102  0.72270658    -0.02500
C1722       C  0.40319101  0.93313743  0.74553820    -0.02500
C1723       C  0.41490350  0.96657086  0.75433520     0.07500
C1724       C  0.42708580  0.99409181  0.73932607    -0.02700
Br1725     Br  0.39861810  0.52355420  0.76463752    -0.01200
Br1726     Br  0.39765782  0.52584151  0.71091169    -0.01300
Br1727     Br  0.37716037  0.89285890  0.76342829    -0.01200
Br1728     Br  0.38558347  0.88289810  0.71070259    -0.01200
C1729       C  0.41446947  0.51708190  0.19500816    -0.02400
C1730       C  0.43843631  0.54792755  0.20549844     0.07300
C1731       C  0.46389869  0.57504379  0.19270849    -0.02500
C1732       C  0.46664798  0.57061085  0.17030024    -0.02500
C1733       C  0.44570565  0.53792391  0.16048623     0.07500
C1734       C  0.41902726  0.51123919  0.17312316    -0.02700
Br1735     Br  0.37939403  0.96459435  0.16104770    -0.01200
Br1736     Br  0.37077388  0.48582883  0.20883714    -0.01300
Br1737     Br  0.99575636  0.60778806  0.15422276    -0.01200
Br1738     Br  0.49021708  0.62110956  0.20487950    -0.01200
C1739       C  0.40992091  0.88779183  0.19103969    -0.02400
C1740       C  0.43322839  0.90777968  0.20804583     0.07300
C1741       C  0.45804636  0.94190833  0.20261905    -0.02500
C1742       C  0.46397918  0.95196453  0.18051890    -0.02500
C1743       C  0.44713101  0.92834261  0.16326738     0.07500
C1744       C  0.41867845  0.89631207  0.16889636    -0.02700
Br1745     Br  0.39264900  0.86317030  0.14663333    -0.01200
Br1746     Br  0.36429057  0.85018630  0.19805653    -0.01300
Br1747     Br  0.49111318  0.99971174  0.17470143    -0.01200
Br1748     Br  0.48017780  0.97728058  0.22450575    -0.01200
C1749       C  0.07710817  0.57672718  0.16981261    -0.02400
C1750       C  0.06892967  0.54514231  0.15960661     0.07300
C1751       C  0.07526602  0.52128367  0.17113578    -0.02500
C1752       C  0.08955432  0.52948124  0.19217106    -0.02500
C1753       C  0.09137570  0.55792993  0.20361693     0.07500
C1754       C  0.08567446  0.58192104  0.19198276    -0.02700
Br1755     Br  0.09403295  0.62450042  0.20554561    -0.01200
Br1756     Br  0.08077727  0.61484182  0.15287134    -0.01300
Br1757     Br  0.11251091  0.50546858  0.20330186    -0.01200
Br1758     Br  0.06821674  0.97608884  0.15857897    -0.01200
C1759       C  0.22551855  0.94044952  0.56194393    -0.02400
C1760       C  0.21384744  0.96456006  0.56321697     0.07300
C1761       C  0.18711214  0.96000948  0.54864584    -0.02500
C1762       C  0.18372812  0.94306479  0.52883913    -0.02500
C1763       C  0.20153640  0.92457434  0.52535395     0.07500
C1764       C  0.22035598  0.92127463  0.54271339    -0.02700
Br1765     Br  0.23795838  0.88978937  0.54092931    -0.01200
Br1766     Br  0.24111894  0.92812572  0.58778932    -0.01300
Br1767     Br  0.15723135  0.94847127  0.50578706    -0.01200
Br1768     Br  0.15934439  0.98194449  0.55326264    -0.01200
C1769       C  0.18890656  0.78128600  0.53945919    -0.02400
C1770       C  0.21225460  0.80297554  0.52339845     0.07300
C1771       C  0.24808917  0.81770598  0.52698242    -0.02500
C1772       C  0.26025246  0.80832956  0.54527227    -0.02500
C1773       C  0.23650448  0.78181832  0.55952224     0.07500
C1774       C  0.20120548  0.77264630  0.55816050    -0.02700
Br1775     Br  0.17078308  0.75516101  0.58301715    -0.01200
Br1776     Br  0.13987103  0.76298221  0.53620217    -0.01300
Br1777     Br  0.31006224  0.82850226  0.54799642    -0.01200
Br1778     Br  0.28130545  0.84765855  0.50543291    -0.01200
C1779       C  0.05948607  0.75635174  0.52165178    -0.02400
C1780       C  0.07781870  0.79260192  0.51915374     0.07300
C1781       C  0.08040851  0.81361289  0.53710730    -0.02500
C1782       C  0.06276675  0.79835182  0.55646901    -0.02500
C1783       C  0.03848153  0.76310605  0.55682437     0.07500
C1784       C  0.04267640  0.74182867  0.54131913    -0.02700
Br1785     Br  0.02222791  0.69269233  0.54550409    -0.01200
Br1786     Br  0.05435787  0.72610441  0.49756665    -0.01300
Br1787     Br  0.07823173  0.82282179  0.58354852    -0.01200
Br1788     Br  0.10738553  0.86295217  0.53599815    -0.01200
C1789       C  0.29065058  0.57058986  0.34712946    -0.02400
C1790       C  0.25545308  0.55036659  0.34189182     0.07300
C1791       C  0.23219747  0.55638006  0.35470682    -0.02500
C1792       C  0.24038403  0.56636469  0.37659028    -0.02500
C1793       C  0.27522475  0.58235443  0.38359095     0.07500
C1794       C  0.30071284  0.58611719  0.36788238    -0.02700
Br1795     Br  0.34975605  0.61114678  0.37376191    -0.01200
Br1796     Br  0.32462676  0.58306991  0.32433646    -0.01300
Br1797     Br  0.20231620  0.55216903  0.39685743    -0.01200
Br1798     Br  0.18661325  0.54435377  0.34446241    -0.01200
C1799       C  0.23374934  0.93664163  0.38710415    -0.02400
C1800       C  0.20422493  0.93370483  0.37635772     0.07300
C1801       C  0.17564655  0.92858012  0.38932773    -0.02500
C1802       C  0.17518931  0.92300092  0.41192405    -0.02500
C1803       C  0.20283847  0.92104771  0.42189927     0.07500
C1804       C  0.23277165  0.92961759  0.40944199    -0.02700
Br1805     Br  0.27478092  0.93698852  0.42349197    -0.01200
Br1806     Br  0.27828768  0.95744784  0.37261806    -0.01300
Br1807     Br  0.13827795  0.92253565  0.42894133    -0.01200
Br1808     Br  0.13964946  0.93568058  0.37707883    -0.01200
C1809       C  0.26203969  0.69912126  0.34658584    -0.02400
C1810       C  0.27717595  0.73466382  0.34305880     0.07300
C1811       C  0.30646602  0.75545949  0.35617200    -0.02500
C1812       C  0.31030422  0.74349874  0.37676977    -0.02500
C1813       C  0.28692958  0.70894104  0.38351455     0.07500
C1814       C  0.26439137  0.68629845  0.36709734    -0.02700
Br1815     Br  0.23630406  0.63740140  0.37098601    -0.01200
Br1816     Br  0.24742494  0.66930104  0.32151997    -0.01300
Br1817     Br  0.34891366  0.77524757  0.39442780    -0.01200
Br1818     Br  0.34146665  0.80022188  0.34602994    -0.01200
C1819       C  0.24381989  0.81345466  0.39022285    -0.02400
C1820       C  0.21627768  0.78430612  0.37994360     0.07300
C1821       C  0.19002212  0.75913564  0.39322541    -0.02500
C1822       C  0.18854655  0.76554517  0.41547698    -0.02500
C1823       C  0.21233582  0.79786074  0.42462533     0.07500
C1824       C  0.24202749  0.81995624  0.41252724    -0.02700
Br1825     Br  0.28223926  0.85547948  0.42707445    -0.01200
Br1826     Br  0.28625666  0.84208769  0.37456886    -0.01300
Br1827     Br  0.15698767  0.72811749  0.43407251    -0.01200
Br1828     Br  0.15895122  0.71371461  0.38176871    -0.01200
C1829       C  0.42545731  0.72150480  0.35179551    -0.02400
C1830       C  0.45718206  0.72275847  0.35632432     0.07300
C1831       C  0.45797515  0.70388406  0.37478663    -0.02500
C1832       C  0.43510727  0.69765320  0.39205021    -0.02500
C1833       C  0.40545491  0.70075731  0.38886557     0.07500
C1834       C  0.39931042  0.70969943  0.36796835    -0.02700
Br1835     Br  0.35438999  0.70296478  0.36084359    -0.01200
Br1836     Br  0.41426214  0.72748226  0.32249823    -0.01300
Br1837     Br  0.44776854  0.68967753  0.42065658    -0.01200
Br1838     Br  0.49221815  0.68924334  0.37792301    -0.01200
C1839       C  0.05636054  0.81396494  0.39235117    -0.02400
C1840       C  0.07113474  0.80371749  0.37534389     0.07300
C1841       C  0.10536180  0.81053504  0.37825984    -0.02500
C1842       C  0.11901360  0.81635784  0.39944752    -0.02500
C1843       C  0.09844464  0.81479748  0.41743801     0.07500
C1844       C  0.06881344  0.81747803  0.41360043    -0.02700
Br1845     Br  0.04619923  0.82732469  0.43717929    -0.01200
Br1846     Br  0.02072249  0.82560227  0.38613168    -0.01300
Br1847     Br  0.16741129  0.83249564  0.40332457    -0.01200
Br1848     Br  0.13649592  0.82096633  0.35403982    -0.01200
C1849       C  0.38270408  0.65663745  0.21190614    -0.02400
C1850       C  0.36521775  0.63762390  0.19296865     0.07300
C1851       C  0.34817327  0.60099065  0.19443334    -0.02500
C1852       C  0.35152005  0.58497206  0.21322612    -0.02500
C1853       C  0.37669814  0.60450413  0.22923627     0.07500
C1854       C  0.38759618  0.63998682  0.23005512    -0.02700
Br1855     Br  0.40241201  0.66401372  0.25740703    -0.01200
Br1856     Br  0.39987082  0.70532522  0.21408731    -0.01300
Br1857     Br  0.32545482  0.53542089  0.21461130    -0.01200
Br1858     Br  0.32143184  0.57073002  0.17067147    -0.01200
C1859       C  0.42466952  0.79297858  0.22469590    -0.02400
C1860       C  0.40236503  0.79636217  0.23977279     0.07300
C1861       C  0.36707531  0.77322296  0.23727186    -0.02500
C1862       C  0.35387351  0.75946337  0.21660374    -0.02500
C1863       C  0.37674997  0.76589059  0.19871517     0.07500
C1864       C  0.41288187  0.78244736  0.20331650    -0.02700
Br1865     Br  0.44790491  0.79523688  0.18090456    -0.01200
Br1866     Br  0.47309200  0.81130655  0.23121079    -0.01300
Br1867     Br  0.30462229  0.73201538  0.21418062    -0.01200
Br1868     Br  0.33977678  0.75316592  0.26304458    -0.01200
C1869       C  0.22733337  0.66604890  0.20142732    -0.02400
C1870       C  0.24794943  0.65075676  0.19614471     0.07300
C1871       C  0.24987485  0.62840418  0.21207066    -0.02500
C1872       C  0.22985605  0.61970614  0.23133468    -0.02500
C1873       C  0.20463838  0.62968202  0.23426011     0.07500
C1874       C  0.20839455  0.65775054  0.22113608    -0.02700
Br1875     Br  0.18592373  0.68404486  0.22890031    -0.01200
Br1876     Br  0.22200902  0.69688679  0.18162945    -0.01300
Br1877     Br  0.24331535  0.60166901  0.25559527    -0.01200
Br1878     Br  0.27823686  0.60710978  0.20845675    -0.01200
C1879       C  0.45753626  0.60744626  0.04440852    -0.02400
C1880       C  0.43511093  0.58654477  0.02751713     0.07300
C1881       C  0.43132565  0.55357594  0.02438066    -0.02500
C1882       C  0.44050216  0.53831452  0.04112645    -0.02500
C1883       C  0.45493291  0.55655848  0.06048631     0.07500
C1884       C  0.46545633  0.59195536  0.06150658    -0.02700
Br1885     Br  0.48875533  0.61918501  0.08687923    -0.01200
Br1886     Br  0.47608978  0.65703169  0.04523466    -0.01300
Br1887     Br  0.42897644  0.98517739  0.03658952    -0.01200
Br1888     Br  0.42257480  0.53346127  0.99581675    -0.01200
C1889       C  0.38965850  0.67073662  0.05233860    -0.02400
C1890       C  0.36598611  0.63917153  0.04254478     0.07300
C1891       C  0.34022038  0.61300621  0.05590768    -0.02500
C1892       C  0.33818204  0.61862942  0.07823372    -0.02500
C1893       C  0.36248486  0.65006344  0.08808019     0.07500
C1894       C  0.38944939  0.67521661  0.07505357    -0.02700
Br1895     Br  0.42893949  0.71366125  0.08803486    -0.01200
Br1896     Br  0.42666013  0.70535847  0.03487639    -0.01300
Br1897     Br  0.30552616  0.58012767  0.09588215    -0.01200
Br1898     Br  0.31307514  0.56603202  0.04537416    -0.01200
C1899       C  0.41112162  0.90253474  0.02189645    -0.02400
C1900       C  0.43376140  0.89408419  0.01041497     0.07300
C1901       C  0.46760331  0.90897674  0.01902507    -0.02500
C1902       C  0.47386981  0.91801577  0.04127718    -0.02500
C1903       C  0.44785280  0.91868544  0.05432774     0.07500
C1904       C  0.41569770  0.90938260  0.04438894    -0.02700
Br1905     Br  0.37578378  0.90100007  0.06165501    -0.01200
Br1906     Br  0.37205912  0.90185172  0.00791257    -0.01300
Br1907     Br  0.02126578  0.93087766  0.05212701    -0.01200
Br1908     Br  0.50599789  0.92116562  0.99969187    -0.01200
C1909       C  0.35348283  0.78295554  0.08311074    -0.02400
C1910       C  0.37821838  0.77798562  0.09460407     0.07300
C1911       C  0.40880500  0.78499291  0.08358282    -0.02500
C1912       C  0.41093399  0.78783396  0.06070316    -0.02500
C1913       C  0.38352104  0.78679239  0.04847583     0.07500
C1914       C  0.35607441  0.78713338  0.06024212    -0.02700
Br1915     Br  0.32371128  0.79703576  0.04546772    -0.01200
Br1916     Br  0.31676303  0.78559367  0.09832856    -0.01300
Br1917     Br  0.45360421  0.79798681  0.04637232    -0.01200
Br1918     Br  0.44965888  0.79738217  0.10052231    -0.01200
C1919       C  0.12449948  0.60693770  0.04701785    -0.02400
C1920       C  0.12484630  0.58784151  0.02859155     0.07300
C1921       C  0.09361118  0.55770083  0.02348033    -0.02500
C1922       C  0.06732811  0.54310968  0.03948172    -0.02500
C1923       C  0.07453110  0.55583855  0.06097698     0.07500
C1924       C  0.10284670  0.58922066  0.06441326    -0.02700
Br1925     Br  0.11493141  0.61063063  0.09282862    -0.01200
Br1926     Br  0.15603835  0.65613628  0.04987065    -0.01300
Br1927     Br  0.02691248  0.00674113  0.03375198    -0.01200
Br1928     Br  0.08372577  0.54163028  0.99394076    -0.01200
C1929       C  0.23072431  0.60171649  0.06474014    -0.02400
C1930       C  0.24418426  0.62475839  0.04689113     0.07300
C1931       C  0.27560637  0.65479878  0.05024805    -0.02500
C1932       C  0.28542860  0.66712098  0.07167848    -0.02500
C1933       C  0.26431823  0.64925050  0.08984883     0.07500
C1934       C  0.23857237  0.61440494  0.08617873    -0.02700
Br1935     Br  0.21295727  0.58329332  0.10959667    -0.01200
Br1936     Br  0.19945881  0.55324533  0.05927643    -0.01300
Br1937     Br  0.33094566  0.70371703  0.07574989    -0.01200
Br1938     Br  0.30950260  0.67107049  0.02720607    -0.01200
C1939       C  0.24753500  0.87392853  0.70884321    -0.02400
C1940       C  0.25217370  0.89590276  0.72687214     0.07300
C1941       C  0.27558184  0.93177136  0.72453131    -0.02500
C1942       C  0.29800993  0.94377294  0.70656039    -0.02500
C1943       C  0.29836423  0.91982144  0.69121391     0.07500
C1944       C  0.26962226  0.88649004  0.69067251    -0.02700
Br1945     Br  0.25652636  0.86055737  0.66392909    -0.01200
Br1946     Br  0.21083231  0.82658017  0.70787504    -0.01300
Br1947     Br  0.33153263  0.99293645  0.70523189    -0.01200
Br1948     Br  0.27991661  0.96559586  0.74609709    -0.01200
C1949       C  0.14252605  0.74396287  0.72215570    -0.02400
C1950       C  0.12860516  0.76623354  0.72563593     0.07300
C1951       C  0.10786403  0.76847280  0.70887127    -0.02500
C1952       C  0.09668250  0.74503930  0.69116540    -0.02500
C1953       C  0.10624661  0.71911704  0.68989756     0.07500
C1954       C  0.13437372  0.72381508  0.70323975    -0.02700
Br1955     Br  0.16169386  0.70176455  0.69701829    -0.01200
Br1956     Br  0.17088505  0.73732204  0.74345188    -0.01300
Br1957     Br  0.07498351  0.75400570  0.66689662    -0.01200
Br1958     Br  0.09543611  0.80424616  0.70893356    -0.01200
C1959       C  0.07434874  0.87346342  0.70622240    -0.02400
C1960       C  0.09595514  0.90055528  0.69185549     0.07300
C1961       C  0.13198809  0.91485540  0.69435719    -0.02500
C1962       C  0.14554295  0.90993437  0.71389318    -0.02500
C1963       C  0.12297348  0.88867660  0.73079608     0.07500
C1964       C  0.08691426  0.87043336  0.72650538    -0.02700
Br1965     Br  0.05270377  0.84271089  0.74824853    -0.01200
Br1966     Br  0.02595882  0.84308511  0.69981920    -0.01300
Br1967     Br  0.19540457  0.93373986  0.71643136    -0.01200
Br1968     Br  0.16257571  0.93428349  0.66967350    -0.01200
C1969       C  0.09548230  0.63275110  0.88036922    -0.02400
C1970       C  0.07394314  0.63544084  0.89657347     0.07300
C1971       C  0.03950384  0.60918744  0.89737515    -0.02500
C1972       C  0.02415477  0.58929689  0.87874948    -0.02500
C1973       C  0.04448527  0.59272825  0.86000426     0.07500
C1974       C  0.08065270  0.61479517  0.86112339    -0.02700
Br1975     Br  0.11016971  0.62606708  0.83566040    -0.01200
Br1976     Br  0.14523601  0.65565917  0.88292217    -0.01300
Br1977     Br  0.47774707  0.55615712  0.87634213    -0.01200
Br1978     Br  0.01637747  0.59525392  0.92509689    -0.01200
C1979       C  0.09196171  0.75090448  0.85946276    -0.02400
C1980       C  0.11853840  0.75108874  0.87238171     0.07300
C1981       C  0.14796596  0.75384871  0.86137117    -0.02500
C1982       C  0.15037907  0.75651739  0.83865361    -0.02500
C1983       C  0.12808448  0.76409252  0.82692504     0.07500
C1984       C  0.09757356  0.75956660  0.83723457    -0.02700
Br1985     Br  0.06123553  0.76130355  0.82112193    -0.01200
Br1986     Br  0.04489026  0.73051578  0.87027343    -0.01300
Br1987     Br  0.17807402  0.74132942  0.82286836    -0.01200
Br1988     Br  0.18184622  0.74667740  0.87635339    -0.01200
C1989       C  0.39635577  0.94168714  0.90268118    -0.02400
C1990       C  0.38022790  0.96025966  0.90971384     0.07300
C1991       C  0.38849010  0.98995981  0.89716210    -0.02500
C1992       C  0.39727075  0.99139099  0.87485798    -0.02500
C1993       C  0.40470724  0.96618177  0.86580147     0.07500
C1994       C  0.40439639  0.94124918  0.88053189    -0.02700
Br1995     Br  0.41090308  0.90337245  0.87158663    -0.01200
Br1996     Br  0.41396397  0.92319047  0.92419222    -0.01300
Br1997     Br  0.39791627  0.02808032  0.85783473    -0.01200
Br1998     Br  0.39136591  0.03003314  0.91112572    -0.01200
C1999       C  0.26046725  0.91979113  0.84042550    -0.02400
C2000       C  0.25104346  0.88795667  0.83009505     0.07300
C2001       C  0.25505481  0.86271973  0.84168136    -0.02500
C2002       C  0.26462663  0.86792661  0.86377365    -0.02500
C2003       C  0.26885280  0.89758670  0.87486826     0.07500
C2004       C  0.26859417  0.92428143  0.86265358    -0.02700
Br2005     Br  0.28445212  0.96928885  0.87557328    -0.01200
Br2006     Br  0.26659120  0.95918343  0.82368447    -0.01300
Br2007     Br  0.27717433  0.83689017  0.87779037    -0.01200
Br2008     Br  0.24991172  0.82180791  0.82759006    -0.01200
C2009       C  0.05057612  0.96322153  0.90079272    -0.02400
C2010       C  0.04133995  0.92838895  0.90384139     0.07300
C2011       C  0.01351828  0.90394326  0.89069700    -0.02500
C2012       C  0.00385982  0.91427580  0.87131007    -0.02500
C2013       C  0.01946511  0.94974192  0.86546174     0.07500
C2014       C  0.04181798  0.97412814  0.88130687    -0.02700
Br2015     Br  0.05253529  0.52280525  0.88256447    -0.01200
Br2016     Br  0.06697843  0.99432711  0.92526991    -0.01300
Br2017     Br  0.46691003  0.87650795  0.84541826    -0.01200
Br2018     Br  0.99078322  0.85521491  0.89761470    -0.01200
C2019       C  0.13051988  0.90896231  0.84045848    -0.02400
C2020       C  0.13548737  0.88084748  0.83596874     0.07300
C2021       C  0.14128266  0.86408574  0.85364552    -0.02500
C2022       C  0.13343748  0.86917457  0.87516534    -0.02500
C2023       C  0.12186356  0.89310258  0.87903509     0.07500
C2024       C  0.12738081  0.91700419  0.86206407    -0.02700
Br2025     Br  0.13394466  0.96243587  0.86852528    -0.01200
Br2026     Br  0.12670119  0.93602777  0.81733963    -0.01300
Br2027     Br  0.14586752  0.84884415  0.89859503    -0.01200
Br2028     Br  0.16618395  0.83977444  0.84895007    -0.01200
C2029       C  0.57031874  0.42051015  0.91230969     0.86000
C2030       C  0.60503341  0.44757429  0.92297423    -0.54300
C2031       C  0.62696678  0.43536028  0.92878796     0.08900
C2032       C  0.61186642  0.39651052  0.92256744     0.19900
C2033       C  0.58185850  0.40630875  0.89353632    -0.55000
C2034       C  0.60572039  0.39689018  0.89767541     0.09000
C2035       C  0.55446868  0.39093259  0.92862537    -0.54500
C2036       C  0.57432889  0.37617010  0.93347532     0.09600
H2037       H  0.61329491  0.47466509  0.92454546     0.14100
H2038       H  0.62897656  0.38612202  0.92710189    -0.00200
H2039       H  0.57413451  0.40714942  0.87692389     0.14400
H2040       H  0.52801243  0.38031418  0.93429915     0.14200
C2041       C  0.84023431  0.43691728  0.91482077     0.86000
C2042       C  0.82729803  0.40256631  0.92722377    -0.54300
C2043       C  0.79183953  0.38065552  0.92824442     0.08900
C2044       C  0.77263836  0.40025808  0.91869421     0.19900
C2045       C  0.82061329  0.42615670  0.89350763    -0.55000
C2046       C  0.78606182  0.40875666  0.89477184     0.09000
C2047       C  0.82406355  0.45455731  0.92808114    -0.54500
C2048       C  0.78880016  0.43671491  0.93010833     0.09600
H2049       H  0.84463303  0.39799192  0.93678793     0.14100
H2050       H  0.74435002  0.38714062  0.92055674    -0.00200
H2051       H  0.83350096  0.43271196  0.87775628     0.14400
H2052       H  0.83956184  0.47930657  0.93581366     0.14200
C2053       C  0.58200989  0.17089574  0.90304192     0.86000
C2054       C  0.55743730  0.18000335  0.91581697    -0.54300
C2055       C  0.57189529  0.21334611  0.92385345     0.08900
C2056       C  0.61085730  0.23496530  0.91676126     0.19900
C2057       C  0.59389126  0.19707593  0.88515138    -0.55000
C2058       C  0.60982538  0.23024371  0.89135611     0.09000
C2059       C  0.61443781  0.18234476  0.91693322    -0.54500
C2060       C  0.63032399  0.21561612  0.92498130     0.09600
H2061       H  0.52976183  0.16311626  0.91539597     0.14100
H2062       H  0.62207227  0.26162506  0.92285868    -0.00200
H2063       H  0.58989006  0.19000046  0.86802556     0.14400
H2064       H  0.62578745  0.16578645  0.91796764     0.14200
O2065       O  0.66318605  0.39731004  0.75298735    -0.82300
C2066       C  0.64401772  0.28821149  0.80647220     0.97100
O2067       O  0.62207847  0.28676341  0.79317516    -0.71400
O2068       O  0.62334964  0.34314867  0.80664552    -0.75000
Al2069     Al  0.62342788  0.32511822  0.77850609     1.49000
C2070       C  0.63885516  0.37454276  0.81212643     0.92300
O2071       O  0.71571596  0.40195299  0.80226917    -0.81200
O2072       O  0.71733500  0.35354170  0.75049522    -0.74800
Al2073     Al  0.68846176  0.39700603  0.77754903     1.90100
O2074       O  0.73208325  0.36467013  0.79439439    -0.73900
O2075       O  0.66394624  0.29486206  0.75804526    -0.73700
O2076       O  0.67563961  0.30777866  0.80258578    -0.79400
O2077       O  0.62115686  0.30442617  0.75101798    -0.77600
O2078       O  0.66928525  0.35143002  0.77715876    -1.13700
O2079       O  0.61299163  0.35641024  0.76356457    -0.72900
C2080       C  0.63116898  0.37956700  0.75000606     0.97800
C2081       C  0.73337010  0.38785952  0.80679049     0.94200
Al2082     Al  0.69523371  0.33161301  0.77641241     1.55600
O2083       O  0.65652608  0.39767368  0.79829223    -0.77500
C2084       C  0.63839117  0.28960620  0.74639264     0.98400
C2085       C  0.72872995  0.38434051  0.74487644     0.93300
O2086       O  0.72371677  0.40450915  0.75692142    -0.82800
N2087       N  0.78735221  0.00922874  0.95795327    -0.37100
N2088       N  0.76512246  0.05681546  0.97408727    -0.57700
N2089       N  0.69253963  0.00975624  0.95796238    -0.37100
N2090       N  0.71985736  0.46313614  0.94394365    -0.57700
C2091       C  0.80965930  0.02514446  0.97464382     0.26500
C2092       C  0.78700893  0.47837646  0.95790804     0.26500
C2093       C  0.68712556  0.03371467  0.96861576     0.26500
C2094       C  0.66713730  0.48382221  0.95427059     0.26500
C2095       C  0.79720336  0.07114015  0.98367738     0.35100
C2096       C  0.74603801  0.06769197  0.98586548     0.35100
C2097       C  0.73888591  0.45148102  0.93301035     0.35100
C2098       C  0.69209272  0.45584971  0.93138295     0.35100
C2099       C  0.81534021  0.00084241  0.98518025    -0.22400
C2100       C  0.80458513  0.47364208  0.97470890    -0.22400
C2101       C  0.65293888  0.02493753  0.96527118    -0.22400
C2102       C  0.64166442  0.47936725  0.96882918    -0.22400
C2103       C  0.79723147  0.08992699  0.00134043    -0.23500
C2104       C  0.76520592  0.08558018  0.00332043    -0.23500
C2105       C  0.72346843  0.43745537  0.91343681    -0.23500
C2106       C  0.69473911  0.44134658  0.91222119    -0.23400
C2107       C  0.82246878  0.06012545  0.98144740    -0.18800
C2108       C  0.77016262  0.45436139  0.94088114    -0.18800
C2109       C  0.66313548  0.45914985  0.93808819    -0.18800
C2110       C  0.71145711  0.06178185  0.98230179    -0.18800
H2111       H  0.82742267  0.00314821  0.00072522     0.14100
H2112       H  0.80610250  0.45062508  0.97818359     0.14100
H2113       H  0.64005534  0.03904477  0.96989838     0.14100
H2114       H  0.61676460  0.45639222  0.97096591     0.14100
H2115       H  0.81571475  0.10093881  0.01398112     0.12400
H2116       H  0.75574222  0.09033854  0.01779674     0.12400
H2117       H  0.73217894  0.42648307  0.90100043     0.12400
H2118       H  0.67882499  0.43600715  0.89832442     0.12400
H2119       H  0.77901986  0.02094825  0.94664564     0.25700
H2120       H  0.71604909  0.01030789  0.95689534     0.25600
C2121       C  0.66309471  0.09869043  0.01956070     0.86000
C2122       C  0.66783317  0.07281834  0.00479083    -0.54300
C2123       C  0.70014168  0.08513804  0.99526814     0.08900
C2124       C  0.72512970  0.12362878  0.00297680     0.19900
C2125       C  0.69102527  0.10790028  0.03607223    -0.55000
C2126       C  0.72348113  0.12040623  0.02864299     0.09000
C2127       C  0.67471068  0.13147096  0.00669016    -0.54500
C2128       C  0.70631770  0.14496567  0.99698888     0.09600
H2129       H  0.64877492  0.04566205  0.00481692     0.14100
H2130       H  0.75154894  0.13523598  0.99605652    -0.00200
H2131       H  0.68492691  0.10300667  0.05323241     0.14400
H2132       H  0.65925523  0.14418035  0.00645085     0.14200
C2133       C  0.91775527  0.35571438  0.00420540     0.86000
C2134       C  0.88318596  0.33958431  0.99221202    -0.54300
C2135       C  0.86536011  0.30431644  0.99094097     0.08900
C2136       C  0.88604143  0.28791997  0.00228615     0.19900
C2137       C  0.91034549  0.33758424  0.02597130    -0.55000
C2138       C  0.89348828  0.30316981  0.02572114     0.09000
C2139       C  0.93754191  0.34119685  0.99119879    -0.54500
C2140       C  0.92292743  0.30543774  0.99082901     0.09600
H2141       H  0.87411263  0.35501325  0.98416325     0.14100
H2142       H  0.87244071  0.25953514  0.00272800    -0.00200
H2143       H  0.91799644  0.35140080  0.04133914     0.14400
H2144       H  0.95999214  0.35807066  0.98172836     0.14200
C2145       C  0.91318528  0.09355393  0.01165746     0.86000
C2146       C  0.93293109  0.12602895  0.99807197    -0.54300
C2147       C  0.91456690  0.14056291  0.98954525     0.08900
C2148       C  0.87623592  0.12131632  0.99867280     0.19900
C2149       C  0.89709837  0.10359894  0.02973716    -0.55000
C2150       C  0.87932776  0.11921195  0.02384297     0.09000
C2151       C  0.88127482  0.06935763  0.99743953    -0.54500
C2152       C  0.85952942  0.08221254  0.99158346     0.09600
H2153       H  0.96066519  0.13752206  0.99650932     0.14100
H2154       H  0.86132410  0.13381447  0.99405165    -0.00200
H2155       H  0.90010733  0.09924637  0.04680538     0.14400
H2156       H  0.87638966  0.04429964  0.99294487     0.14200
O2157       O  0.88376767  0.18448978  0.16779022    -0.82300
C2158       C  0.77855888  0.16073100  0.11150170     0.97100
O2159       O  0.77372315  0.14050946  0.12704032    -0.71400
O2160       O  0.82918819  0.14031001  0.11606628    -0.75000
Al2161     Al  0.81130509  0.14260248  0.14283994     1.49000
C2162       C  0.86001788  0.15395783  0.10983168     0.92300
O2163       O  0.88678084  0.23595951  0.11766747    -0.81200
O2164       O  0.83618389  0.23452925  0.17019122    -0.74800
Al2165     Al  0.88235372  0.20859189  0.14249629     1.90100
O2166       O  0.84899431  0.25149564  0.12636527    -0.73900
O2167       O  0.77641260  0.17982311  0.16130519    -0.73700
O2168       O  0.79403746  0.19280111  0.11551250    -0.79400
O2169       O  0.79083270  0.14144127  0.17011071    -0.77600
O2170       O  0.83666987  0.18833386  0.14307272    -1.13700
O2171       O  0.84291028  0.13427264  0.15808194    -0.72900
C2172       C  0.86587083  0.15268439  0.17142991     0.97800
C2173       C  0.87312853  0.25443465  0.11408734     0.94200
Al2174     Al  0.81521667  0.21283579  0.14332831     1.55600
O2175       O  0.88404572  0.17612411  0.12174822    -0.77500
C2176       C  0.77413020  0.15673533  0.17444408     0.98400
C2177       C  0.86766741  0.24700581  0.17529258     0.93300
O2178       O  0.88822082  0.24362591  0.16255178    -0.82800
N2179       N  0.99624871  0.30198628  0.96034092    -0.37100
N2180       N  0.54788476  0.28107718  0.94493319    -0.57700
N2181       N  0.98911501  0.20697717  0.95304102    -0.37100
N2182       N  0.94657458  0.23413401  0.97710178    -0.57700
C2183       C  0.53209742  0.33336539  0.96136200     0.26500
C2184       C  0.97957264  0.30803263  0.97696168     0.26500
C2185       C  0.52064317  0.20521592  0.94874021     0.26500
C2186       C  0.96310573  0.17745593  0.96210972     0.26500
C2187       C  0.55922964  0.31232595  0.93526777     0.35100
C2188       C  0.55901968  0.26315737  0.93244385     0.35100
C2189       C  0.92792926  0.25101347  0.97817813     0.35100
C2190       C  0.92395139  0.19971598  0.97540412     0.35100
C2191       C  0.53642011  0.35594767  0.97802421    -0.22400
C2192       C  0.00297842  0.33863744  0.98708301    -0.22400
C2193       C  0.51154211  0.17157197  0.95358892    -0.22400
C2194       C  0.97058239  0.15122186  0.95788736    -0.22400
C2195       C  0.57608361  0.31355359  0.91634733    -0.23500
C2196       C  0.57780953  0.28377441  0.91518793    -0.23500
C2197       C  0.89320300  0.22707909  0.97598274    -0.23500
C2198       C  0.89068928  0.19488285  0.97443076    -0.23400
C2199       C  0.55624919  0.34021155  0.94414651    -0.18800
C2200       C  0.94314299  0.28762446  0.98158362    -0.18800
C2201       C  0.93336009  0.17311735  0.97473910    -0.18800
C2202       C  0.55053814  0.22792490  0.93569999    -0.18800
H2203       H  0.55915774  0.38058328  0.98122685     0.14100
H2204       H  0.99875170  0.34978975  0.00159241     0.14100
H2205       H  0.52639196  0.15865979  0.95135364     0.14100
H2206       H  0.95465007  0.12388742  0.96092685     0.14100
H2207       H  0.58520809  0.33319403  0.90415710     0.12400
H2208       H  0.59073308  0.27824896  0.90242683     0.12400
H2209       H  0.87197915  0.23205719  0.97388082     0.12400
H2210       H  0.86721076  0.17132481  0.97072135     0.12400
H2211       H  0.98488075  0.28217162  0.94890449     0.25700
H2212       H  0.98909161  0.23021758  0.95217816     0.25600
N2213       N  0.70255001  0.21384064  0.95989684    -0.37100
N2214       N  0.77250214  0.23494497  0.97680712    -0.57700
N2215       N  0.79322461  0.30753473  0.96128525    -0.37100
N2216       N  0.72327907  0.28489048  0.94365335    -0.57700
C2217       C  0.69723054  0.18373377  0.96949544     0.26500
C2218       C  0.67193613  0.20817125  0.95100356     0.26500
C2219       C  0.82205904  0.30403918  0.96314971     0.26500
C2220       C  0.79861115  0.32957438  0.94437266     0.26500
C2221       C  0.75371776  0.20612083  0.98883741     0.35100
C2222       C  0.80238285  0.25458189  0.98777447     0.35100
C2223       C  0.69131239  0.26725689  0.93426255     0.35100
C2224       C  0.73991178  0.31761838  0.93509197     0.35100
C2225       C  0.66330783  0.15872564  0.96568335    -0.22400
C2226       C  0.64712891  0.17453482  0.95613234    -0.22400
C2227       C  0.84492134  0.32235502  0.94666864    -0.22400
C2228       C  0.82970351  0.33711754  0.93445944    -0.22400
C2229       C  0.77126261  0.20815731  0.00767055    -0.23500
C2230       C  0.80228884  0.23834201  0.00684960    -0.23500
C2231       C  0.68867988  0.28926647  0.91953673    -0.23500
C2232       C  0.71853745  0.32003248  0.91994606    -0.23400
C2233       C  0.72029552  0.17865517  0.98374114    -0.18800
C2234       C  0.66546239  0.23129218  0.93753402    -0.18800
C2235       C  0.77602865  0.34252044  0.93731173    -0.18800
C2236       C  0.82935195  0.28662783  0.98024270    -0.18800
H2237       H  0.65036566  0.13172272  0.97000813     0.14100
H2238       H  0.61952176  0.16191092  0.95374742     0.14100
H2239       H  0.86972285  0.32417340  0.94350571     0.14100
H2240       H  0.84020792  0.35121913  0.91951345     0.14100
H2241       H  0.76172440  0.19069585  0.02126261     0.12400
H2242       H  0.82157711  0.24749595  0.01939841     0.12400
H2243       H  0.66985323  0.28381891  0.90721780     0.12400
H2244       H  0.72478322  0.33879626  0.90737258     0.12400
H2245       H  0.72567972  0.23697936  0.95948518     0.25700
H2246       H  0.77251867  0.29795568  0.97220617     0.25600
C2247       C  0.99278732  0.24949436  0.34395272     0.86000
C2248       C  0.00610496  0.22961916  0.33096954    -0.54300
C2249       C  0.53552723  0.24559394  0.32335713     0.08900
C2250       C  0.55387806  0.28488140  0.33127939     0.19900
C2251       C  0.51675294  0.26357842  0.36302664    -0.55000
C2252       C  0.54975570  0.28344239  0.35663319     0.09000
C2253       C  0.99848414  0.28031151  0.32917674    -0.54500
C2254       C  0.53021396  0.30062788  0.32444606     0.09600
H2255       H  0.99071176  0.20177364  0.32952128     0.14100
H2256       H  0.58093977  0.29960609  0.32546587    -0.00200
H2257       H  0.50939626  0.26100275  0.38010534     0.14400
H2258       H  0.97765834  0.28472598  0.32529278     0.14200
C2259       C  0.75215664  0.25034115  0.33577064     0.86000
C2260       C  0.76866582  0.28358941  0.32237830    -0.54300
C2261       C  0.74912389  0.29939649  0.31984653     0.08900
C2262       C  0.71251161  0.27815789  0.33119633     0.19900
C2263       C  0.74044085  0.25914801  0.35687501    -0.55000
C2264       C  0.72108615  0.27432724  0.35515226     0.09000
C2265       C  0.71810293  0.22753330  0.32333225    -0.54500
C2266       C  0.69494395  0.23979279  0.32215139     0.09600
H2267       H  0.79411426  0.29389430  0.31525015     0.14100
H2268       H  0.69659102  0.29057038  0.32905349    -0.00200
H2269       H  0.74758145  0.25420039  0.37279379     0.14400
H2270       H  0.71454288  0.20547952  0.31428084     0.14200
C2271       C  0.73864907  0.01233769  0.33684182     0.86000
C2272       C  0.70769965  0.99757874  0.32146261    -0.54300
C2273       C  0.69083935  0.46129396  0.31858555     0.08900
C2274       C  0.70974438  0.44408252  0.33046914     0.19900
C2275       C  0.73000634  0.49151850  0.35597483    -0.55000
C2276       C  0.71415126  0.45704413  0.35444173     0.09000
C2277       C  0.76322755  0.00063139  0.32658318    -0.54500
C2278       C  0.74739914  0.46246802  0.32144973     0.09600
H2279       H  0.69868490  0.01380023  0.31418966     0.14100
H2280       H  0.69697195  0.41591604  0.32813600    -0.00200
H2281       H  0.73583610  0.50410984  0.37177747     0.14400
H2282       H  0.79025272  0.01767522  0.32329752     0.14200
O2283       O  0.61674582  0.29266991  0.49694389    -0.82300
C2284       C  0.69340911  0.40475307  0.44199275     0.97100
O2285       O  0.67071255  0.40272015  0.45522304    -0.71400
O2286       O  0.61681377  0.34430303  0.44707372    -0.75000
Al2287     Al  0.63926120  0.36411301  0.47293638     1.49000
C2288       C  0.60350995  0.31364619  0.44069131     0.92300
O2289       O  0.66565167  0.29428069  0.44676180    -0.81200
O2290       O  0.71393045  0.34583714  0.49705599    -0.74800
Al2291     Al  0.64231928  0.29634326  0.47186478     1.90100
O2292       O  0.71760298  0.33649485  0.45259022    -0.73900
O2293       O  0.71343458  0.40305769  0.49104906    -0.73700
O2294       O  0.71014837  0.38956829  0.44614569    -0.79400
O2295       O  0.65926007  0.38557309  0.49869626    -0.77600
O2296       O  0.66383133  0.34218486  0.47215945    -1.13700
O2297       O  0.60184800  0.33161543  0.49103410    -0.72900
C2298       C  0.59980765  0.30715685  0.50232488     0.97800
C2299       C  0.69685269  0.31111815  0.44119353     0.94200
Al2300     Al  0.70996320  0.36673225  0.47177744     1.55600
O2301       O  0.60655499  0.29131573  0.45175072    -0.77500
C2302       C  0.69059030  0.40359395  0.50315595     0.98400
C2303       C  0.69863778  0.31471248  0.50274820     0.93300
O2304       O  0.67352939  0.29224474  0.49183218    -0.82800
C2305       C  0.66883482  0.09989130  0.24034562     0.86000
C2306       C  0.65932048  0.06556257  0.25243313    -0.54300
C2307       C  0.62422368  0.04223143  0.25501342     0.08900
C2308       C  0.60224979  0.05863983  0.24689404     0.19900
C2309       C  0.64717307  0.08768416  0.21989602    -0.55000
C2310       C  0.61312822  0.06702543  0.22273979     0.09000
C2311       C  0.65183324  0.11529087  0.25477198    -0.54500
C2312       C  0.61695409  0.09497095  0.25826935     0.09600
H2313       H  0.67844073  0.06161659  0.26011993     0.14100
H2314       H  0.57442796  0.04163171  0.24977527    -0.00200
H2315       H  0.65824867  0.09458970  0.20363180     0.14400
H2316       H  0.66664418  0.14097458  0.26159192     0.14200
C2317       C  0.91741391  0.33668812  0.24426725     0.86000
C2318       C  0.89040440  0.34433336  0.25538642    -0.54300
C2319       C  0.90052703  0.37874193  0.25923330     0.08900
C2320       C  0.93996595  0.40190102  0.25236811     0.19900
C2321       C  0.92990895  0.36039889  0.22448095    -0.55000
C2322       C  0.93873351  0.39364035  0.22744520     0.09000
C2323       C  0.94721875  0.35151120  0.25967904    -0.54500
C2324       C  0.96124991  0.38578468  0.26369109     0.09600
H2325       H  0.86590536  0.32370060  0.26025925     0.14100
H2326       H  0.95229554  0.42951902  0.25647643    -0.00200
H2327       H  0.92875320  0.35048076  0.20820320     0.14400
H2328       H  0.95813863  0.33610268  0.26571410     0.14200
C2329       C  0.90375613  0.08961135  0.23811528     0.86000
C2330       C  0.93936135  0.11369679  0.24796479    -0.54300
C2331       C  0.95660436  0.09779733  0.25648204     0.08900
C2332       C  0.93665692  0.05793509  0.25096960     0.19900
C2333       C  0.91352003  0.07309798  0.22004835    -0.55000
C2334       C  0.93070989  0.05679284  0.22580408     0.09000
C2335       C  0.88447486  0.06146702  0.25525478    -0.54500
C2336       C  0.89881208  0.04113021  0.26048982     0.09600
H2337       H  0.95199736  0.14126524  0.24542885     0.14100
H2338       H  0.95106521  0.04588547  0.25753933    -0.00200
H2339       H  0.90904522  0.07601792  0.20298674     0.14400
H2340       H  0.86120348  0.05908553  0.26228784     0.14200
O2341       O  0.99480695  0.05382610  0.08365109    -0.82300
C2342       C  0.95875248  0.44405056  0.13926943     0.97100
O2343       O  0.93669543  0.44113327  0.12519947    -0.71400
O2344       O  0.94071064  0.99893503  0.13256744    -0.75000
Al2345     Al  0.94031662  0.47781884  0.10656801     1.49000
C2346       C  0.95517932  0.02962982  0.13876360     0.92300
O2347       O  0.52832775  0.04267553  0.13604025    -0.81200
O2348       O  0.53506794  0.99935601  0.08173336    -0.74800
Al2349     Al  0.50816531  0.04327657  0.10995801     1.90100
O2350       O  0.54773428  0.00829029  0.12610151    -0.73900
O2351       O  0.98099634  0.44336855  0.08786979    -0.73700
O2352       O  0.99027733  0.45814458  0.13386241    -0.79400
O2353       O  0.94138448  0.45671175  0.08022814    -0.77600
O2354       O  0.99137918  0.00330671  0.10805929    -1.13700
O2355       O  0.94124908  0.01230447  0.08775128    -0.72900
C2356       C  0.96385591  0.03860809  0.07756090     0.97800
C2357       C  0.54818349  0.03055864  0.13909025     0.94200
Al2358     Al  0.51707214  0.48446225  0.10736087     1.55600
O2359       O  0.97872034  0.05237213  0.12716798    -0.77500
C2360       C  0.95796466  0.44166025  0.07505894     0.98400
C2361       C  0.55195791  0.03200061  0.08036813     0.93300
O2362       O  0.54697459  0.05041106  0.09381677    -0.82800
N2363       N  0.52959586  0.17073683  0.28806980    -0.37100
N2364       N  0.54601819  0.11767209  0.27416023    -0.57700
N2365       N  0.61954303  0.16606177  0.29035428    -0.37100
N2366       N  0.60172991  0.21738337  0.30556615    -0.57700
C2367       C  0.49815522  0.14675947  0.27962320     0.26500
C2368       C  0.52662393  0.19798993  0.29592123     0.26500
C2369       C  0.61566331  0.13394707  0.28772402     0.26500
C2370       C  0.64394420  0.18259899  0.30603923     0.26500
C2371       C  0.51485396  0.10464486  0.26403453     0.35100
C2372       C  0.56383365  0.10362865  0.26445925     0.35100
C2373       C  0.58357213  0.23067399  0.31577674     0.35100
C2374       C  0.63218068  0.22899228  0.31656076     0.35100
C2375       C  0.97960731  0.16325592  0.28193262    -0.22400
C2376       C  0.49373828  0.19188560  0.29089215    -0.22400
C2377       C  0.63650430  0.12942363  0.30238551    -0.22400
C2378       C  0.65310262  0.15928400  0.31442818    -0.22400
C2379       C  0.51307846  0.08157056  0.24827818    -0.23500
C2380       C  0.54371364  0.08145880  0.24824670    -0.23500
C2381       C  0.60162938  0.24871019  0.33376250    -0.23500
C2382       C  0.63198776  0.24791288  0.33431089    -0.23400
C2383       C  0.48945795  0.11534643  0.26755736    -0.18800
C2384       C  0.55009983  0.22559747  0.31027154    -0.18800
C2385       C  0.65697637  0.21761377  0.31349222    -0.18800
C2386       C  0.59751364  0.11027874  0.27057992    -0.18800
H2387       H  0.95194344  0.15007295  0.28047385     0.14100
H2388       H  0.98748518  0.21303349  0.29221704     0.14100
H2389       H  0.63901524  0.10662057  0.30435509     0.14100
H2390       H  0.66879469  0.16247017  0.32851594     0.14100
H2391       H  0.49326580  0.06758303  0.23656491     0.12400
H2392       H  0.55001394  0.06755402  0.23651538     0.12400
H2393       H  0.59205418  0.25814883  0.34649358     0.12400
H2394       H  0.64948725  0.25663486  0.34787348     0.12400
H2395       H  0.55165469  0.16854509  0.28915824     0.25700
H2396       H  0.60898254  0.17717880  0.28024767     0.25600
N2397       N  0.82293246  0.46665995  0.29334199    -0.37100
N2398       N  0.86978026  0.44447961  0.27574568    -0.57700
N2399       N  0.82237832  0.37261971  0.29081227    -0.37100
N2400       N  0.77230732  0.39337713  0.30685261    -0.57700
C2401       C  0.83882896  0.48878155  0.27654528     0.26500
C2402       C  0.79055772  0.46248112  0.29505488     0.26500
C2403       C  0.84023843  0.36795430  0.27427024     0.26500
C2404       C  0.79103377  0.34321943  0.29250933     0.26500
C2405       C  0.88658054  0.47787981  0.26816190     0.35100
C2406       C  0.88556463  0.42774053  0.26658483     0.35100
C2407       C  0.76019550  0.41160108  0.31802053     0.35100
C2408       C  0.75917816  0.36201221  0.31654843     0.35100
C2409       C  0.81870390  0.99873620  0.26891393    -0.22400
C2410       C  0.78497010  0.48016620  0.27879548    -0.22400
C2411       C  0.81839498  0.33656828  0.26432816    -0.22400
C2412       C  0.78823334  0.32051423  0.27629780    -0.22400
C2413       C  0.91189341  0.48093832  0.25377587    -0.23500
C2414       C  0.90948520  0.44953527  0.25203749    -0.23500
C2415       C  0.73960747  0.39179225  0.33501169    -0.23500
C2416       C  0.73853939  0.36050020  0.33388520    -0.23400
C2417       C  0.87416442  0.50231536  0.26976711    -0.18800
C2418       C  0.76648803  0.44492917  0.31179342    -0.18800
C2419       C  0.76573683  0.33538715  0.30923172    -0.18800
C2420       C  0.87530298  0.39172224  0.26777015    -0.18800
H2421       H  0.82029761  0.00985938  0.25333641     0.14100
H2422       H  0.76607410  0.98579529  0.27815698     0.14100
H2423       H  0.82252662  0.32678411  0.24918335     0.14100
H2424       H  0.76613630  0.29544234  0.27301407     0.14100
H2425       H  0.92559253  0.50001490  0.24166814     0.12400
H2426       H  0.91852376  0.44182808  0.23819603     0.12400
H2427       H  0.72699020  0.39874241  0.34740349     0.12400
H2428       H  0.72477345  0.33993410  0.34527408     0.12400
H2429       H  0.83438947  0.45751784  0.30429347     0.25700
H2430       H  0.83221482  0.39329940  0.30168329     0.25600
N2431       N  0.52816077  0.37462323  0.29189274    -0.37100
N2432       N  0.59634145  0.39362455  0.30554732    -0.57700
N2433       N  0.62311001  0.46910009  0.28966990    -0.37100
N2434       N  0.55498251  0.45163980  0.27609687    -0.57700
C2435       C  0.52094252  0.35068909  0.30787063     0.26500
C2436       C  0.50172298  0.38174014  0.29108754     0.26500
C2437       C  0.64971101  0.46233547  0.29075591     0.26500
C2438       C  0.63055749  0.49250273  0.27336560     0.26500
C2439       C  0.57935392  0.36299752  0.31641748     0.35100
C2440       C  0.62800419  0.41194615  0.31502533     0.35100
C2441       C  0.52480231  0.43085440  0.26562365     0.35100
C2442       C  0.57290833  0.48050813  0.26360546     0.35100
C2443       C  0.49046339  0.34466127  0.31809074    -0.22400
C2444       C  0.97975592  0.36538417  0.30706374    -0.22400
C2445       C  0.67349403  0.48034855  0.27462121    -0.22400
C2446       C  0.66251236  0.99998308  0.26290105    -0.22400
C2447       C  0.60010069  0.36353252  0.33297734    -0.23500
C2448       C  0.63012345  0.39367688  0.33229134    -0.23500
C2449       C  0.52495614  0.44485002  0.24585041    -0.23500
C2450       C  0.55424439  0.47670337  0.24492152    -0.23400
C2451       C  0.54349789  0.33782271  0.31476132    -0.18800
C2452       C  0.49631776  0.40062557  0.27427169    -0.18800
C2453       C  0.60875178  0.50562712  0.26597931    -0.18800
C2454       C  0.65537973  0.44402398  0.30765021    -0.18800
H2455       H  0.98210910  0.33268571  0.33231961     0.14100
H2456       H  0.95630719  0.36579229  0.31127378     0.14100
H2457       H  0.70036952  0.98422231  0.27198144     0.14100
H2458       H  0.67433683  0.01467524  0.24834560     0.14100
H2459       H  0.59357645  0.34654997  0.34610372     0.12400
H2460       H  0.64964658  0.40109981  0.34444886     0.12400
H2461       H  0.50643560  0.43253798  0.23303769     0.12400
H2462       H  0.56174444  0.49366334  0.23116661     0.12400
H2463       H  0.54847495  0.38345397  0.28071439     0.25700
H2464       H  0.60276805  0.46058489  0.30080866     0.25600
C2465       C  0.82202436  0.42913962  0.67624558     0.86000
C2466       C  0.83041678  0.40224382  0.66599464    -0.54300
C2467       C  0.86425855  0.41421406  0.65930732     0.08900
C2468       C  0.88746327  0.45345383  0.66674252     0.19900
C2469       C  0.84503275  0.44050575  0.69567453    -0.55000
C2470       C  0.87878793  0.45305207  0.69202910     0.09000
C2471       C  0.83702987  0.45991580  0.66095888    -0.54500
C2472       C  0.87121885  0.47435431  0.65547272     0.09600
H2473       H  0.81319950  0.37511687  0.66858986     0.14100
H2474       H  0.91516288  0.46385456  0.66286358    -0.00200
H2475       H  0.83484014  0.43771613  0.71214372     0.14400
H2476       H  0.82113454  0.47067205  0.65590696     0.14200
C2477       C  0.58413083  0.18036650  0.68293969     0.86000
C2478       C  0.55015629  0.17187802  0.67091729    -0.54300
C2479       C  0.53052164  0.13845168  0.66305181     0.08900
C2480       C  0.54707851  0.11581566  0.67060769     0.21100
C2481       C  0.57045950  0.15532786  0.70142850    -0.55000
C2482       C  0.55131746  0.12189204  0.69613219     0.09000
C2483       C  0.60322256  0.16728871  0.66835102    -0.54500
C2484       C  0.58530969  0.13362412  0.66136247     0.09600
H2485       H  0.53925224  0.18865898  0.67260902     0.14100
H2486       H  0.53168773  0.08876475  0.66526285    -0.00200
H2487       H  0.57498898  0.16371998  0.71833446     0.14400
H2488       H  0.63052934  0.18377011  0.66531880     0.14200
C2489       C  0.57303421  0.42235273  0.68141354     0.86000
C2490       C  0.59826642  0.45490261  0.66807922    -0.54300
C2491       C  0.58422098  0.47276734  0.65771040     0.08900
C2492       C  0.54445561  0.45584711  0.66424632     0.19900
C2493       C  0.55925672  0.43753196  0.69781393    -0.55000
C2494       C  0.54565309  0.45636182  0.69006441     0.09000
C2495       C  0.54252927  0.40033622  0.66684668    -0.54500
C2496       C  0.52619319  0.41610062  0.65753966     0.09600
H2497       H  0.62572210  0.46706498  0.67090061     0.14100
H2498       H  0.53085305  0.46866925  0.65716863    -0.00200
H2499       H  0.56263799  0.43570445  0.71516764     0.14400
H2500       H  0.53235052  0.37270148  0.66625906     0.14200
O2501       O  0.52457050  0.99227304  0.83640680    -0.82300
C2502       C  0.92916313  0.48114416  0.78114408     0.97100
O2503       O  0.92916125  0.45828884  0.79320698    -0.71400
O2504       O  0.98496308  0.45746386  0.78418914    -0.75000
Al2505     Al  0.96547971  0.46019821  0.81124298     1.49000
C2506       C  0.52172767  0.46831262  0.77692853     0.92300
O2507       O  0.52893775  0.04024831  0.78505869    -0.81200
O2508       O  0.98874342  0.04729478  0.83839851    -0.74800
Al2509     Al  0.52465200  0.01535151  0.81070792     1.90100
O2510       O  0.00139829  0.06048116  0.79392803    -0.73900
O2511       O  0.92642273  0.99579840  0.82985180    -0.73700
O2512       O  0.94357739  0.00571030  0.78517053    -0.79400
O2513       O  0.94284817  0.45926268  0.83783177    -0.77600
O2514       O  0.98409365  0.99672636  0.81220724    -1.13700
O2515       O  0.99584893  0.45163492  0.82930893    -0.72900
C2516       C  0.52628222  0.46949783  0.84095958     0.97800
C2517       C  0.51705162  0.06014828  0.78121433     0.94200
Al2518     Al  0.96610361  0.02478554  0.81193126     1.55600
O2519       O  0.52591758  0.98129242  0.79193993    -0.77500
C2520       C  0.93179246  0.47884294  0.84450451     0.98400
C2521       C  0.51490157  0.05996354  0.84155918     0.93300
O2522       O  0.53337112  0.05305462  0.82914819    -0.82800
C2523       C  0.73799009  0.00034860  0.56972463     0.86000
C2524       C  0.71931763  0.01244496  0.58546129    -0.54300
C2525       C  0.73661717  0.04643710  0.59206191     0.08900
C2526       C  0.77402737  0.06521459  0.58135391     0.19900
C2527       C  0.74844976  0.02489657  0.55108995    -0.55000
C2528       C  0.76692681  0.05854151  0.55587054     0.09000
C2529       C  0.77341361  0.01037256  0.58002301    -0.54500
C2530       C  0.79269793  0.04365529  0.58778386     0.09600
H2531       H  0.69243388  0.49654712  0.59050331     0.14100
H2532       H  0.78883916  0.09249471  0.58641165    -0.00200
H2533       H  0.74228610  0.01596559  0.53433410     0.14400
H2534       H  0.78434359  0.49563239  0.57544269     0.14200
C2535       C  0.00010157  0.25490235  0.56934058     0.86000
C2536       C  0.98747648  0.22387572  0.58458690    -0.54300
C2537       C  0.95300918  0.20700432  0.59033717     0.08900
C2538       C  0.93432914  0.22575861  0.57975047     0.19900
C2539       C  0.97634270  0.24155299  0.55023486    -0.55000
C2540       C  0.94242881  0.22662627  0.55450051     0.09000
C2541       C  0.98911657  0.27943824  0.58035480    -0.54500
C2542       C  0.95525602  0.26470368  0.58732692     0.09600
H2543       H  0.50443215  0.21424787  0.58880715     0.14100
H2544       H  0.90672454  0.21410941  0.58418950    -0.00200
H2545       H  0.98598976  0.24478415  0.53359642     0.14400
H2546       H  0.50495162  0.30702836  0.58003562     0.14200
C2547       C  0.74708009  0.26138710  0.56985413     0.86000
C2548       C  0.77760664  0.27993081  0.58471817    -0.54300
C2549       C  0.79268207  0.26158781  0.59191858     0.08900
C2550       C  0.77273636  0.22282763  0.58308757     0.19900
C2551       C  0.76026220  0.24797932  0.55200616    -0.55000
C2552       C  0.77081671  0.22555246  0.55746495     0.09000
C2553       C  0.72074251  0.22754815  0.58197711    -0.54500
C2554       C  0.73377532  0.20730036  0.59037325     0.09600
H2555       H  0.78854368  0.30739502  0.58740450     0.14100
H2556       H  0.78519106  0.20799113  0.58860087    -0.00200
H2557       H  0.75803433  0.25357306  0.53508207     0.14400
H2558       H  0.69327760  0.21744178  0.58057834     0.14200
O2559       O  0.86695578  0.16500610  0.41168778    -0.82300
C2560       C  0.78924858  0.19304771  0.47119827     0.97100
O2561       O  0.81434154  0.21677074  0.46070596    -0.71400
O2562       O  0.86983350  0.21478982  0.46258974    -0.75000
Al2563     Al  0.84399357  0.21356162  0.43851108     1.49000
C2564       C  0.88459951  0.19813233  0.46756669     0.92300
O2565       O  0.81928620  0.11959101  0.46187297    -0.81200
O2566       O  0.77218757  0.12390181  0.41002558    -0.74800
Al2567     Al  0.84181760  0.14306382  0.43660898     1.90100
O2568       O  0.76653299  0.10684132  0.45432982    -0.73900
O2569       O  0.76902246  0.17865743  0.41791046    -0.73700
O2570       O  0.77019282  0.16439268  0.46256212    -0.79400
O2571       O  0.82212609  0.21924366  0.41412247    -0.77600
O2572       O  0.81995134  0.16759106  0.43704295    -1.13700
O2573       O  0.87868821  0.21839434  0.41751633    -0.72900
C2574       C  0.88270177  0.19640973  0.40665937     0.97800
C2575       C  0.78790915  0.10516577  0.46706608     0.94200
Al2576     Al  0.77351588  0.14554133  0.43623024     1.55600
O2577       O  0.87933856  0.17250756  0.45605057    -0.77500
C2578       C  0.79170950  0.20401667  0.40727949     0.98400
C2579       C  0.78641926  0.10665448  0.40488128     0.93300
O2580       O  0.80980254  0.10731245  0.41686271    -0.82800
N2581       N  0.95654765  0.33876990  0.62291933    -0.37100
N2582       N  0.93105523  0.38670502  0.64090665    -0.57700
N2583       N  0.86152725  0.33605147  0.62626041    -0.37100
N2584       N  0.88632717  0.28743880  0.60824246    -0.57700
C2585       C  0.98580492  0.36354457  0.63295079     0.26500
C2586       C  0.96309363  0.31422555  0.61397159     0.26500
C2587       C  0.85390776  0.35940226  0.63600542     0.26500
C2588       C  0.83142618  0.30799067  0.61959745     0.26500
C2589       C  0.96065460  0.39651180  0.65239415     0.35100
C2590       C  0.91179092  0.39759411  0.65247774     0.35100
C2591       C  0.90572862  0.27780051  0.59577824     0.35100
C2592       C  0.85577050  0.27667746  0.59766519     0.35100
C2593       C  0.01149595  0.35491604  0.62943423    -0.22400
C2594       C  0.99679296  0.32332489  0.61927883    -0.22400
C2595       C  0.81854493  0.34599591  0.63412494    -0.22400
C2596       C  0.80450137  0.31297967  0.62637617    -0.22400
C2597       C  0.95885771  0.41158509  0.67152633    -0.23500
C2598       C  0.92896549  0.41306564  0.67131005    -0.23500
C2599       C  0.88721331  0.26121488  0.57739364    -0.23500
C2600       C  0.85652156  0.26137240  0.57835862    -0.23400
C2601       C  0.98939252  0.39182481  0.64680803    -0.18800
C2602       C  0.94067004  0.28556305  0.59981187    -0.18800
C2603       C  0.82730117  0.28107733  0.60446659    -0.18800
C2604       C  0.87724377  0.39059463  0.64808296    -0.18800
H2605       H  0.53987701  0.37196662  0.63095079     0.14100
H2606       H  0.01023072  0.30907783  0.61643364     0.14100
H2607       H  0.80341192  0.35843902  0.63653858     0.14100
H2608       H  0.77707987  0.29586361  0.62424919     0.14100
H2609       H  0.97599525  0.41843579  0.68512787     0.12400
H2610       H  0.91992806  0.42234513  0.68445431     0.12400
H2611       H  0.89537958  0.25165677  0.56386490     0.12400
H2612       H  0.83794974  0.25333700  0.56543846     0.12400
H2613       H  0.93383988  0.33931834  0.62185353     0.25700
H2614       H  0.88569387  0.33978591  0.62274372     0.25600
N2615       N  0.70957010  0.11478163  0.61083137    -0.37100
N2616       N  0.65789036  0.13544766  0.62510774    -0.57700
N2617       N  0.61175942  0.06503174  0.64279376    -0.37100
N2618       N  0.66324647  0.04461106  0.62771744    -0.57700
C2619       C  0.71957114  0.14450179  0.59916485     0.26500
C2620       C  0.72362549  0.09673622  0.60086483     0.26500
C2621       C  0.59701687  0.08262402  0.65238004     0.26500
C2622       C  0.59870572  0.03339067  0.65265211     0.26500
C2623       C  0.68154597  0.16585760  0.61547691     0.35100
C2624       C  0.63145790  0.13986855  0.63304856     0.35100
C2625       C  0.69014050  0.04029422  0.62047653     0.35100
C2626       C  0.63885904  0.01382984  0.63654860     0.35100
C2627       C  0.73878966  0.14403841  0.58187763    -0.22400
C2628       C  0.74292517  0.11591107  0.58343748    -0.22400
C2629       C  0.57421734  0.06135344  0.66808953    -0.22400
C2630       C  0.57523146  0.03123441  0.66822952    -0.22400
C2631       C  0.67015591  0.18946638  0.61817303    -0.23500
C2632       C  0.63771981  0.17234723  0.62692928    -0.23500
C2633       C  0.68350178  0.00771692  0.62639015    -0.23500
C2634       C  0.65025773  0.99024834  0.63367933    -0.23400
C2635       C  0.71138067  0.17182925  0.60257308    -0.18800
C2636       C  0.71761931  0.06244147  0.60565420    -0.18800
C2637       C  0.60820844  0.00694570  0.64898809    -0.18800
C2638       C  0.60410879  0.11748935  0.64798032    -0.18800
H2639       H  0.74649986  0.16037242  0.56814035     0.14100
H2640       H  0.75639880  0.10973645  0.57140100     0.14100
H2641       H  0.55928899  0.06659150  0.67961693     0.14100
H2642       H  0.56102810  0.01113978  0.67977297     0.14100
H2643       H  0.68341126  0.21669601  0.61480795     0.12400
H2644       H  0.62144142  0.18377937  0.62934037     0.12400
H2645       H  0.69994114  0.99636404  0.62448670     0.12400
H2646       H  0.63972350  0.46621967  0.63746947     0.12400
H2647       H  0.69514956  0.10793661  0.62513557     0.25700
H2648       H  0.62891501  0.07359268  0.62977815     0.25600
N2649       N  0.94114649  0.06890924  0.63913061    -0.37100
N2650       N  0.95685050  0.13831699  0.62654970    -0.57700
N2651       N  0.88567743  0.11210048  0.60710796    -0.37100
N2652       N  0.87000469  0.04224326  0.61900815    -0.57700
C2653       C  0.96838770  0.08880060  0.65251894     0.26500
C2654       C  0.92148681  0.03795299  0.64930319     0.26500
C2655       C  0.90316383  0.14432581  0.59793991     0.26500
C2656       C  0.85518296  0.09326804  0.59603942     0.26500
C2657       C  0.98750724  0.14676152  0.63672086     0.35100
C2658       C  0.95900699  0.16842237  0.61934891     0.35100
C2659       C  0.86850961  0.01217909  0.62582837     0.35100
C2660       C  0.83873011  0.03393235  0.60972567     0.35100
C2661       C  0.96502084  0.07039277  0.67116718    -0.22400
C2662       C  0.93558368  0.03911809  0.66931892    -0.22400
C2663       C  0.88296609  0.14540869  0.58128538    -0.22400
C2664       C  0.85379638  0.11403950  0.57998314    -0.22400
C2665       C  0.00886269  0.18201011  0.63510034    -0.23500
C2666       C  0.98984639  0.19557489  0.62669493    -0.23500
C2667       C  0.83726089  0.98486374  0.61931552    -0.23500
C2668       C  0.81779460  0.99846208  0.61149325    -0.23400
C2669       C  0.99500542  0.12393806  0.64946620    -0.18800
C2670       C  0.89057013  0.00866727  0.64174759    -0.18800
C2671       C  0.82944490  0.05739707  0.59875741    -0.18800
C2672       C  0.93705963  0.17241650  0.60352040    -0.18800
H2673       H  0.98099568  0.07914125  0.68532937     0.14100
H2674       H  0.92444654  0.02034200  0.68203587     0.14100
H2675       H  0.88857675  0.16523930  0.56963922     0.14100
H2676       H  0.83530836  0.10734457  0.56716043     0.14100
H2677       H  0.53628298  0.19795424  0.63925792     0.12400
H2678       H  0.99927272  0.22292177  0.62483754     0.12400
H2679       H  0.82779833  0.45876355  0.61979816     0.12400
H2680       H  0.79041192  0.98315339  0.60924807     0.12400
H2681       H  0.93715533  0.07523399  0.62352339     0.25700
H2682       H  0.89361583  0.10400218  0.62065570     0.25600
C2683       C  0.79481008  0.19544083  0.53330808    -0.02400
C2684       C  0.76813469  0.20218814  0.53867660     0.07300
C2685       C  0.74286799  0.19520070  0.52226673    -0.02500
C2686       C  0.75198907  0.19717948  0.50021131    -0.02500
C2687       C  0.78241393  0.19706462  0.49442079     0.07500
C2688       C  0.80056041  0.19105364  0.51124077    -0.02700
Br2689     Br  0.82763310  0.17001392  0.50496470    -0.01200
Br2690     Br  0.81801034  0.18473314  0.55579317    -0.01300
Br2691     Br  0.72317962  0.20044862  0.47810870    -0.01200
Br2692     Br  0.69671518  0.18522656  0.53007823    -0.01200
C2693       C  0.92280474  0.24384245  0.52132775    -0.02400
C2694       C  0.92104863  0.21659231  0.53422110     0.07300
C2695       C  0.91566929  0.18631873  0.52309364    -0.02500
C2696       C  0.90794276  0.18175156  0.50061518    -0.02500
C2697       C  0.90436402  0.20694950  0.48868896     0.07500
C2698       C  0.91399438  0.23892561  0.49907009    -0.02700
Br2699     Br  0.91951972  0.27812585  0.48235338    -0.01200
Br2700     Br  0.94487356  0.29057193  0.53269292    -0.01300
Br2701     Br  0.90560455  0.14211697  0.48617634    -0.01200
Br2702     Br  0.92550030  0.15359320  0.53739669    -0.01200
C2703       C  0.80177869  0.07733567  0.52196933    -0.02400
C2704       C  0.77734181  0.08022187  0.53559768     0.07300
C2705       C  0.75159196  0.08509921  0.52498176    -0.02500
C2706       C  0.75317786  0.09155595  0.50236123    -0.02500
C2707       C  0.77827787  0.08941441  0.48927444     0.07500
C2708       C  0.80003756  0.07889320  0.49915317    -0.02700
Br2709     Br  0.82319306  0.06093817  0.48095943    -0.01200
Br2710     Br  0.83347452  0.06389931  0.53387251    -0.01300
Br2711     Br  0.71879117  0.10052710  0.48962435    -0.01200
Br2712     Br  0.70938200  0.07520584  0.53985475    -0.01200
C2713       C  0.56948973  0.49560164  0.72173152    -0.02400
C2714       C  0.54151124  0.47870774  0.70702310     0.07300
C2715       C  0.50869983  0.46570027  0.71589669    -0.02500
C2716       C  0.50283337  0.45560686  0.73771190    -0.02500
C2717       C  0.53015162  0.46905579  0.75293459     0.07500
C2718       C  0.56419469  0.48912653  0.74444680    -0.02700
Br2719     Br  0.60380060  0.50024636  0.76232056    -0.01200
Br2720     Br  0.61556611  0.52034314  0.70974190    -0.01300
Br2721     Br  0.95705568  0.41647029  0.74473130    -0.01200
Br2722     Br  0.97913361  0.48197681  0.70137406    -0.01200
C2723       C  0.51162124  0.10108065  0.72824541    -0.02400
C2724       C  0.53774606  0.09914506  0.71571591     0.07300
C2725       C  0.56167443  0.09282271  0.72722059    -0.02500
C2726       C  0.55746310  0.08546753  0.74960916    -0.02500
C2727       C  0.52776587  0.08075226  0.76064368     0.07500
C2728       C  0.50746953  0.09298278  0.75068330    -0.02700
Br2729     Br  0.48134263  0.10770659  0.76870352    -0.01200
Br2730     Br  0.48551493  0.12103117  0.71593983    -0.01300
Br2731     Br  0.59698554  0.09371669  0.76681324    -0.01200
Br2732     Br  0.60440787  0.10117939  0.71385089    -0.01200
C2733       C  0.90484780  0.49330688  0.72351646    -0.02400
C2734       C  0.89873272  0.46228283  0.71303936     0.07300
C2735       C  0.89350453  0.43450014  0.72698225    -0.02500
C2736       C  0.89865845  0.43927704  0.74977008    -0.02500
C2737       C  0.91202985  0.47243960  0.75905681     0.07500
C2738       C  0.91144892  0.49826382  0.74609311    -0.02700
Br2739     Br  0.93294766  0.03742828  0.74718878    -0.01200
Br2740     Br  0.97836964  0.01861259  0.70494343    -0.01300
Br2741     Br  0.88046052  0.39914166  0.76851420    -0.01200
Br2742     Br  0.87226329  0.38777116  0.71581934    -0.01200
C2743       C  0.91778212  0.01517278  0.19585567    -0.02400
C2744       C  0.94300191  0.04504905  0.20684358     0.07300
C2745       C  0.96958760  0.07173423  0.19426538    -0.02500
C2746       C  0.97078678  0.06868564  0.17155337    -0.02500
C2747       C  0.94735179  0.03762653  0.16099193     0.07500
C2748       C  0.91982091  0.01154491  0.17325714    -0.02700
Br2749     Br  0.87659292  0.46993200  0.16051167    -0.01200
Br2750     Br  0.87589174  0.98198499  0.21051589    -0.01300
Br2751     Br  0.49200556  0.10565901  0.15335601    -0.01200
Br2752     Br  0.99988045  0.11641438  0.20711197    -0.01200
C2753       C  0.91224565  0.39187018  0.19033367    -0.02400
C2754       C  0.93607933  0.41193494  0.20713108     0.07300
C2755       C  0.96026310  0.44633192  0.20183461    -0.02500
C2756       C  0.96531699  0.45677008  0.17985240    -0.02500
C2757       C  0.94837129  0.43324438  0.16260425     0.07500
C2758       C  0.91982971  0.40125424  0.16819940    -0.02700
Br2759     Br  0.89169072  0.36962432  0.14579408    -0.01200
Br2760     Br  0.86826785  0.35177998  0.19752301    -0.01300
Br2761     Br  0.99085571  0.50473381  0.17435359    -0.01200
Br2762     Br  0.98363310  0.48126462  0.22384216    -0.01200
C2763       C  0.57642905  0.07239318  0.16932285    -0.02400
C2764       C  0.56939396  0.04105758  0.15915958     0.07300
C2765       C  0.57735614  0.01813232  0.17035419    -0.02500
C2766       C  0.59147288  0.02657686  0.19134501    -0.02500
C2767       C  0.59229833  0.05456489  0.20275744     0.07500
C2768       C  0.58551738  0.07795021  0.19132888    -0.02700
Br2769     Br  0.59264193  0.12006986  0.20495183    -0.01200
Br2770     Br  0.57654379  0.10943413  0.15285534    -0.01300
Br2771     Br  0.61457106  0.00295218  0.20287377    -0.01200
Br2772     Br  0.56995139  0.47998269  0.15797828    -0.01200
C2773       C  0.72459534  0.44092464  0.55902022    -0.02400
C2774       C  0.71262538  0.46464104  0.56096715     0.07300
C2775       C  0.68520913  0.45999480  0.54702529    -0.02500
C2776       C  0.68079353  0.44290352  0.52716177    -0.02500
C2777       C  0.69917645  0.42515221  0.52286719     0.07500
C2778       C  0.71954304  0.42258339  0.53951563    -0.02700
Br2779     Br  0.74002577  0.39366410  0.53646414    -0.01200
Br2780     Br  0.73988039  0.42752367  0.58449577    -0.01300
Br2781     Br  0.65139713  0.44652059  0.50534102    -0.01200
Br2782     Br  0.65699909  0.48104617  0.55295570    -0.01200
C2783       C  0.68934755  0.28827667  0.54022860    -0.02400
C2784       C  0.71131574  0.30517863  0.52234322     0.07300
C2785       C  0.74695884  0.31735300  0.52440095    -0.02500
C2786       C  0.75988739  0.31009778  0.54319546    -0.02500
C2787       C  0.73646658  0.28585479  0.55873752     0.07500
C2788       C  0.70211937  0.27952696  0.55869504    -0.02700
Br2789     Br  0.67482173  0.26574867  0.58498594    -0.01200
Br2790     Br  0.64205369  0.27785403  0.54007491    -0.01300
Br2791     Br  0.80958340  0.32853923  0.54479379    -0.01200
Br2792     Br  0.77801367  0.34054307  0.50031416    -0.01200
C2793       C  0.55799257  0.25847742  0.52536966    -0.02400
C2794       C  0.57742831  0.29434965  0.52200728     0.07300
C2795       C  0.57975121  0.31661541  0.53924216    -0.02500
C2796       C  0.55985179  0.30311426  0.55835280    -0.02500
C2797       C  0.53560516  0.26766307  0.55963117     0.07500
C2798       C  0.54022743  0.24539258  0.54499926    -0.02700
Br2799     Br  0.51945710  0.19635407  0.54996457    -0.01200
Br2800     Br  0.55215759  0.22660731  0.50217213    -0.01300
Br2801     Br  0.57216056  0.33112804  0.58427760    -0.01200
Br2802     Br  0.61013510  0.36540207  0.53751650    -0.01200
C2803       C  0.78748332  0.07134123  0.34829771    -0.02400
C2804       C  0.75191341  0.04995516  0.34443209     0.07300
C2805       C  0.72900960  0.05580432  0.35777198    -0.02500
C2806       C  0.73972361  0.07019917  0.37859450    -0.02500
C2807       C  0.77502456  0.08624207  0.38436038     0.07500
C2808       C  0.79908921  0.08783363  0.36860874    -0.02700
Br2809     Br  0.84794855  0.11212039  0.37421336    -0.01200
Br2810     Br  0.81903731  0.08560691  0.32406567    -0.01300
Br2811     Br  0.70479718  0.06262389  0.40020933    -0.01200
Br2812     Br  0.68136507  0.03887737  0.34979964    -0.01200
C2813       C  0.73425305  0.44018091  0.38753431    -0.02400
C2814       C  0.70621836  0.43831144  0.37553609     0.07300
C2815       C  0.67665228  0.43347650  0.38724439    -0.02500
C2816       C  0.67254367  0.42434045  0.40942480    -0.02500
C2817       C  0.69932582  0.42269089  0.42067618     0.07500
C2818       C  0.73136452  0.43469984  0.41013834    -0.02700
Br2819     Br  0.77260186  0.45166606  0.42764036    -0.01200
Br2820     Br  0.77867364  0.45545330  0.37389541    -0.01300
Br2821     Br  0.63209337  0.41899181  0.42449703    -0.01200
Br2822     Br  0.64477888  0.44584125  0.37421171    -0.01200
C2823       C  0.75954724  0.20085488  0.34889054    -0.02400
C2824       C  0.77607082  0.23598779  0.34299009     0.07300
C2825       C  0.80453113  0.25839860  0.35637971    -0.02500
C2826       C  0.80613315  0.24935631  0.37820487    -0.02500
C2827       C  0.78436553  0.21518139  0.38570262     0.07500
C2828       C  0.76132473  0.19085191  0.37041292    -0.02700
Br2829     Br  0.73021863  0.14387735  0.37815828    -0.01200
Br2830     Br  0.74048796  0.16620328  0.32647045    -0.01300
Br2831     Br  0.83515163  0.28564418  0.39824285    -0.01200
Br2832     Br  0.83979790  0.30288334  0.34609123    -0.01200
C2833       C  0.73754209  0.31750793  0.38510546    -0.02400
C2834       C  0.71275738  0.28565777  0.37599807     0.07300
C2835       C  0.68932059  0.25994824  0.39037274    -0.02500
C2836       C  0.68928650  0.26726227  0.41269393    -0.02500
C2837       C  0.70770212  0.30160830  0.42029148     0.07500
C2838       C  0.73315857  0.32656818  0.40638860    -0.02700
Br2839     Br  0.76403311  0.37259393  0.41612034    -0.01200
Br2840     Br  0.78139443  0.34549399  0.37056029    -0.01300
Br2841     Br  0.66767505  0.22976666  0.43327314    -0.01200
Br2842     Br  0.65986387  0.21346777  0.38000225    -0.01200
C2843       C  0.92741658  0.22744422  0.35165453    -0.02400
C2844       C  0.95783206  0.22566494  0.35528327     0.07300
C2845       C  0.95780678  0.20563693  0.37335972    -0.02500
C2846       C  0.93487563  0.19907040  0.39067319    -0.02500
C2847       C  0.90806425  0.20687741  0.38874259     0.07500
C2848       C  0.90292149  0.21876789  0.36862533    -0.02700
Br2849     Br  0.86162901  0.22129842  0.36387297    -0.01200
Br2850     Br  0.91446011  0.23168385  0.32246294    -0.01300
Br2851     Br  0.94216815  0.18198996  0.41789924    -0.01200
Br2852     Br  0.99114800  0.18976910  0.37598285    -0.01200
C2853       C  0.56267790  0.32178488  0.38888861    -0.02400
C2854       C  0.57421675  0.30515821  0.37405302     0.07300
C2855       C  0.59828097  0.29629328  0.38129552    -0.02500
C2856       C  0.59970543  0.29065886  0.40335491    -0.02500
C2857       C  0.58787632  0.30587604  0.41876955     0.07500
C2858       C  0.56978339  0.32244095  0.41122194    -0.02700
Br2859     Br  0.55011020  0.34108105  0.43154559    -0.01200
Br2860     Br  0.53471831  0.34082120  0.37847444    -0.01300
Br2861     Br  0.61319929  0.25777535  0.41082398    -0.01200
Br2862     Br  0.64190785  0.31662815  0.36638565    -0.01200
C2863       C  0.88718216  0.15563673  0.21029885    -0.02400
C2864       C  0.87055488  0.13616343  0.19133468     0.07300
C2865       C  0.85421213  0.09956266  0.19271362    -0.02500
C2866       C  0.85754161  0.08396578  0.21159118    -0.02500
C2867       C  0.88224898  0.10423145  0.22758562     0.07500
C2868       C  0.89232061  0.13943241  0.22847126    -0.02700
Br2869     Br  0.90580711  0.16315395  0.25595777    -0.01200
Br2870     Br  0.90230290  0.20407342  0.21261579    -0.01300
Br2871     Br  0.83265630  0.03415843  0.21315982    -0.01200
Br2872     Br  0.82873768  0.06886815  0.16880835    -0.01200
C2873       C  0.93011352  0.29778849  0.22088663    -0.02400
C2874       C  0.90743307  0.30018899  0.23614306     0.07300
C2875       C  0.87268253  0.27452177  0.23503889    -0.02500
C2876       C  0.85921252  0.25702298  0.21524166    -0.02500
C2877       C  0.88116117  0.26453506  0.19671915     0.07500
C2878       C  0.91741699  0.28486908  0.20006203    -0.02700
Br2879     Br  0.95058740  0.30015716  0.17637880    -0.01200
Br2880     Br  0.97934178  0.32072054  0.22605652    -0.01300
Br2881     Br  0.81136980  0.22234783  0.21482123    -0.01200
Br2882     Br  0.84719391  0.25742210  0.26180344    -0.01200
C2883       C  0.73018660  0.16199242  0.19897633    -0.02400
C2884       C  0.75187172  0.14750600  0.19489050     0.07300
C2885       C  0.75427541  0.12676135  0.21178488    -0.02500
C2886       C  0.73233056  0.11717882  0.23033498    -0.02500
C2887       C  0.70600496  0.12603650  0.23190661     0.07500
C2888       C  0.70969945  0.15337072  0.21804195    -0.02700
Br2889     Br  0.68433267  0.17758873  0.22353393    -0.01200
Br2890     Br  0.72601030  0.19275170  0.17847437    -0.01300
Br2891     Br  0.74424285  0.09953334  0.25549074    -0.01200
Br2892     Br  0.78770959  0.11110722  0.21085929    -0.01200
C2893       C  0.95896206  0.10330172  0.04016823    -0.02400
C2894       C  0.93698261  0.08196546  0.02307677     0.07300
C2895       C  0.93266312  0.04842004  0.02141291    -0.02500
C2896       C  0.94175676  0.03434281  0.03915584    -0.02500
C2897       C  0.95465721  0.05312841  0.05862028     0.07500
C2898       C  0.96429018  0.08822646  0.05869942    -0.02700
Br2899     Br  0.98196308  0.11525273  0.08494930    -0.01200
Br2900     Br  0.97950378  0.15300691  0.03985215    -0.01300
Br2901     Br  0.91902215  0.48626298  0.03877178    -0.01200
Br2902     Br  0.92316850  0.02527384  0.99371284    -0.01200
C2903       C  0.89097002  0.16354814  0.05125463    -0.02400
C2904       C  0.86681117  0.13142932  0.04236327     0.07300
C2905       C  0.84218776  0.10577985  0.05641581    -0.02500
C2906       C  0.84184781  0.11236137  0.07872607    -0.02500
C2907       C  0.86612995  0.14469162  0.08758792     0.07500
C2908       C  0.89182489  0.16945986  0.07379586    -0.02700
Br2909     Br  0.93069663  0.20985657  0.08549806    -0.01200
Br2910     Br  0.92644372  0.19768921  0.03276929    -0.01300
Br2911     Br  0.81119344  0.07460644  0.09755964    -0.01200
Br2912     Br  0.81312056  0.05894495  0.04619872    -0.01200
C2913       C  0.91203827  0.40339338  0.02162781    -0.02400
C2914       C  0.93449062  0.39467412  0.01013843     0.07300
C2915       C  0.96877955  0.41061705  0.01826005    -0.02500
C2916       C  0.97639287  0.42324775  0.03996612    -0.02500
C2917       C  0.95031568  0.42345293  0.05333248     0.07500
C2918       C  0.91749883  0.41197677  0.04385185    -0.02700
Br2919     Br  0.87773140  0.40239723  0.06161041    -0.01200
Br2920     Br  0.87292884  0.40280423  0.00783220    -0.01300
Br2921     Br  0.52611707  0.43813158  0.05155309    -0.01200
Br2922     Br  0.00606067  0.42063938  0.99837000    -0.01200
C2923       C  0.85829975  0.28305254  0.08328013    -0.02400
C2924       C  0.88240705  0.27579846  0.09359570     0.07300
C2925       C  0.91174921  0.28140403  0.08152054    -0.02500
C2926       C  0.91243986  0.28459087  0.05865002    -0.02500
C2927       C  0.88561813  0.28657120  0.04766563     0.07500
C2928       C  0.85995238  0.28837892  0.06053034    -0.02700
Br2929     Br  0.82898821  0.30177304  0.04732922    -0.01200
Br2930     Br  0.82491085  0.28897880  0.10016159    -0.01300
Br2931     Br  0.95219224  0.29016698  0.04257396    -0.01200
Br2932     Br  0.95360963  0.29289320  0.09702633    -0.01200
C2933       C  0.62915932  0.10287391  0.05178371    -0.02400
C2934       C  0.62876320  0.08712589  0.03162019     0.07300
C2935       C  0.59757519  0.05795966  0.02548061    -0.02500
C2936       C  0.57163469  0.04019892  0.04126244    -0.02500
C2937       C  0.57807487  0.05037595  0.06328426     0.07500
C2938       C  0.60720939  0.08249108  0.06840395    -0.02700
Br2939     Br  0.62015289  0.09769449  0.09813188    -0.01200
Br2940     Br  0.66138790  0.15123474  0.05748139    -0.01300
Br2941     Br  0.52517125  0.51107750  0.03280559    -0.01200
Br2942     Br  0.58755504  0.04758224  0.99513365    -0.01200
C2943       C  0.73663853  0.09960498  0.06335294    -0.02400
C2944       C  0.74911029  0.12330900  0.04582437     0.07300
C2945       C  0.78017846  0.15352411  0.04913487    -0.02500
C2946       C  0.79033235  0.16518870  0.07061941    -0.02500
C2947       C  0.76930184  0.14670050  0.08872227     0.07500
C2948       C  0.74362706  0.11197347  0.08483825    -0.02700
Br2949     Br  0.71606589  0.08115827  0.10787919    -0.01200
Br2950     Br  0.70662879  0.05113106  0.05740995    -0.01300
Br2951     Br  0.83577903  0.20193062  0.07458190    -0.01200
Br2952     Br  0.81295217  0.17076880  0.02549904    -0.01200
C2953       C  0.74107259  0.37311777  0.70616435    -0.02400
C2954       C  0.74705129  0.39661461  0.72360646     0.07300
C2955       C  0.76738507  0.43239717  0.71929257    -0.02500
C2956       C  0.78292148  0.44347747  0.69882308    -0.02500
C2957       C  0.78572440  0.41950822  0.68477625     0.07500
C2958       C  0.76002716  0.38490956  0.68665044    -0.02700
Br2959     Br  0.74600268  0.35628256  0.66105034    -0.01200
Br2960     Br  0.70662268  0.32503254  0.70765264    -0.01300
Br2961     Br  0.80432458  0.49209390  0.69204610    -0.01200
Br2962     Br  0.77814222  0.46729901  0.74142685    -0.01200
C2963       C  0.64085088  0.24116659  0.72659168    -0.02400
C2964       C  0.62910575  0.26553521  0.72742118     0.07300
C2965       C  0.61196931  0.26875198  0.70886521    -0.02500
C2966       C  0.60186039  0.24442135  0.69170645    -0.02500
C2967       C  0.60806109  0.21634621  0.69315838     0.07500
C2968       C  0.63316652  0.21930503  0.70856598    -0.02700
Br2969     Br  0.65637771  0.19235525  0.70622953    -0.01200
Br2970     Br  0.66549958  0.23443398  0.75041166    -0.01300
Br2971     Br  0.58825868  0.25477884  0.66434442    -0.01200
Br2972     Br  0.60425856  0.30750620  0.70568889    -0.01200
C2973       C  0.56431066  0.37906016  0.71118974    -0.02400
C2974       C  0.58579740  0.40102885  0.69422986     0.07300
C2975       C  0.61981619  0.40661761  0.69288821    -0.02500
C2976       C  0.63419060  0.39843328  0.71077864    -0.02500
C2977       C  0.61497988  0.38533433  0.73035517     0.07500
C2978       C  0.57929773  0.37461894  0.73004024    -0.02700
Br2979     Br  0.55053184  0.35742018  0.75575660    -0.01200
Br2980     Br  0.51427796  0.35790403  0.71017241    -0.01300
Br2981     Br  0.67925903  0.40296103  0.70719744    -0.01200
Br2982     Br  0.64438365  0.41851060  0.66555015    -0.01200
C2983       C  0.58565748  0.13200522  0.87391966    -0.02400
C2984       C  0.56796320  0.13487472  0.89235033     0.07300
C2985       C  0.53508744  0.10627809  0.89681389    -0.02500
C2986       C  0.51817134  0.08052195  0.88069106    -0.02500
C2987       C  0.53245289  0.08510817  0.85951835     0.07500
C2988       C  0.56669584  0.11181009  0.85632204    -0.02700
Br2989     Br  0.58694332  0.12491008  0.82762832    -0.01200
Br2990     Br  0.63536578  0.15700564  0.87174275    -0.01300
Br2991     Br  0.97627825  0.04070662  0.88656246    -0.01200
Br2992     Br  0.51724903  0.09813339  0.92606458    -0.01200
C2993       C  0.59658921  0.25587264  0.86009693    -0.02400
C2994       C  0.62245422  0.25435900  0.87273450     0.07300
C2995       C  0.65234314  0.25795575  0.86185374    -0.02500
C2996       C  0.65647201  0.26395215  0.83936693    -0.02500
C2997       C  0.63302079  0.27013298  0.82766286     0.07500
C2998       C  0.60210917  0.26451171  0.83794972    -0.02700
Br2999     Br  0.56489388  0.26483222  0.82195418    -0.01200
Br3000     Br  0.54979706  0.23728543  0.87123129    -0.01300
Br3001     Br  0.69071520  0.25753121  0.82373606    -0.01200
Br3002     Br  0.68449883  0.24739344  0.87626216    -0.01200
C3003       C  0.89901708  0.44442599  0.90275596    -0.02400
C3004       C  0.87879775  0.46003579  0.90787132     0.07300
C3005       C  0.88584310  0.48926596  0.89495199    -0.02500
C3006       C  0.89789790  0.49185548  0.87336679    -0.02500
C3007       C  0.91407882  0.47270497  0.86659772     0.07500
C3008       C  0.91689617  0.45100831  0.88257647    -0.02700
Br3009     Br  0.94580154  0.43044247  0.87811580    -0.01200
Br3010     Br  0.90850177  0.41998926  0.92507610    -0.01300
Br3011     Br  0.88879226  0.51995382  0.85348645    -0.01200
Br3012     Br  0.87786069  0.52534700  0.90593806    -0.01200
C3013       C  0.76023839  0.42655497  0.83954232    -0.02400
C3014       C  0.75236956  0.39603287  0.82804904     0.07300
C3015       C  0.75813973  0.37116463  0.83863432    -0.02500
C3016       C  0.76355447  0.37285836  0.86130394    -0.02500
C3017       C  0.76769606  0.40161421  0.87345276     0.07500
C3018       C  0.76902245  0.42977464  0.86180268    -0.02700
Br3019     Br  0.78828812  0.47484417  0.87523716    -0.01200
Br3020     Br  0.76473727  0.46625003  0.82400530    -0.01300
Br3021     Br  0.77034654  0.33782141  0.87509407    -0.01200
Br3022     Br  0.76505438  0.33828240  0.82202569    -0.01200
C3023       C  0.55474176  0.46660649  0.90002321    -0.02400
C3024       C  0.54536032  0.43162763  0.90203507     0.07300
C3025       C  0.52018604  0.40848318  0.88713335    -0.02500
C3026       C  0.51659713  0.42050342  0.86662159    -0.02500
C3027       C  0.53211945  0.45649967  0.86242604     0.07500
C3028       C  0.54943196  0.47933885  0.88014633    -0.02700
Br3029     Br  0.55582367  0.01914661  0.87665749    -0.01200
Br3030     Br  0.56611181  0.49446446  0.92596877    -0.01300
Br3031     Br  0.00260118  0.39169358  0.83624433    -0.01200
Br3032     Br  0.49598710  0.35935052  0.89272459    -0.01200
C3033       C  0.63270650  0.41269606  0.83964450    -0.02400
C3034       C  0.63724893  0.38436908  0.83498573     0.07300
C3035       C  0.64519423  0.36878989  0.85247125    -0.02500
C3036       C  0.63898274  0.37456499  0.87419115    -0.02500
C3037       C  0.62724939  0.39816404  0.87823314     0.07500
C3038       C  0.63220166  0.42190784  0.86130710    -0.02700
Br3039     Br  0.63967888  0.46760089  0.86786529    -0.01200
Br3040     Br  0.62503255  0.43789618  0.81694181    -0.01300
Br3041     Br  0.65422682  0.35649104  0.89752956    -0.01200
Br3042     Br  0.67111002  0.34585792  0.84731356    -0.01200
C3043       C  0.56276209  0.91268872  0.90806637     0.86000
C3044       C  0.59789910  0.94197929  0.91736082    -0.54300
C3045       C  0.62075399  0.93183839  0.92491220     0.08900
C3046       C  0.60675696  0.89264171  0.91992066     0.19900
C3047       C  0.57405310  0.89704267  0.89013256    -0.55000
C3048       C  0.59951576  0.89006003  0.89487665     0.09000
C3049       C  0.54844829  0.88481906  0.92558316    -0.54500
C3050       C  0.56989996  0.87225860  0.93135226     0.09600
H3051       H  0.60597023  0.96900942  0.91574673     0.14100
H3052       H  0.62436029  0.88310955  0.92500856    -0.00200
H3053       H  0.56542514  0.89580146  0.87348395     0.14400
H3054       H  0.52187835  0.87329558  0.93122226     0.14200
C3055       C  0.83807228  0.94110368  0.91356632     0.86000
C3056       C  0.82709415  0.90702032  0.92601151    -0.54300
C3057       C  0.79193310  0.88373967  0.92697598     0.08900
C3058       C  0.77106169  0.90118000  0.91753725     0.19900
C3059       C  0.81876170  0.92938008  0.89222831    -0.55000
C3060       C  0.78435670  0.90961571  0.89375490     0.09000
C3061       C  0.82035638  0.95740222  0.92637688    -0.54500
C3062       C  0.78525034  0.93748899  0.92862519     0.09600
H3063       H  0.84595845  0.90283477  0.93409529     0.14100
H3064       H  0.74281779  0.88630720  0.91952351    -0.00200
H3065       H  0.83146873  0.93645235  0.87645239     0.14400
H3066       H  0.83461539  0.98293916  0.93336595     0.14200
C3067       C  0.58468752  0.67055854  0.90341683     0.86000
C3068       C  0.55781862  0.67814773  0.91481255    -0.54300
C3069       C  0.56981914  0.71188456  0.92154135     0.08900
C3070       C  0.60860238  0.73552756  0.91393224     0.19900
C3071       C  0.59516704  0.69417350  0.88434631    -0.55000
C3072       C  0.60791033  0.72775459  0.88878300     0.09000
C3073       C  0.61634573  0.68571970  0.91792948    -0.54500
C3074       C  0.63015813  0.71959554  0.92417996     0.09600
H3075       H  0.53055993  0.65979062  0.91437131     0.14100
H3076       H  0.61843492  0.76287472  0.91823191    -0.00200
H3077       H  0.59256354  0.68480358  0.86769100     0.14400
H3078       H  0.62834913  0.67037155  0.92140910     0.14200
O3079       O  0.66578668  0.89425992  0.75112632    -0.82300
C3080       C  0.64138588  0.78148635  0.80289505     0.97100
O3081       O  0.62000763  0.78272880  0.79025355    -0.71400
O3082       O  0.62370106  0.83965938  0.80461053    -0.75000
Al3083     Al  0.62356312  0.82264326  0.77637398     1.49000
C3084       C  0.63886509  0.87101614  0.81009286     0.92300
O3085       O  0.71501138  0.89731008  0.80031694    -0.81200
O3086       O  0.71971105  0.85070692  0.75000899    -0.74800
Al3087     Al  0.68935164  0.89344559  0.77595768     1.90100
O3088       O  0.72941798  0.85796065  0.79477639    -0.73900
O3089       O  0.66400027  0.79293854  0.75437188    -0.73700
O3090       O  0.67303898  0.80077170  0.79945344    -0.79400
O3091       O  0.62100482  0.80310300  0.74855273    -0.77600
O3092       O  0.66955845  0.84777609  0.77539789    -1.13700
O3093       O  0.61527875  0.85611314  0.76235558    -0.72900
C3094       C  0.63399360  0.87705885  0.74790642     0.97800
C3095       C  0.73088627  0.88223299  0.80626866     0.94200
Al3096     Al  0.69463416  0.82704191  0.77463397     1.55600
O3097       O  0.65698715  0.89433048  0.79641419    -0.77500
C3098       C  0.63786581  0.78816860  0.74333557     0.98400
C3099       C  0.73154892  0.88167149  0.74483209     0.93300
O3100       O  0.72497427  0.90120495  0.75622869    -0.82800
N3101       N  0.78986008  0.51020901  0.95949142    -0.37100
N3102       N  0.76437953  0.55736015  0.97610215    -0.57700
N3103       N  0.69580312  0.51508877  0.95784753    -0.37100
N3104       N  0.71352816  0.96004585  0.94239601    -0.57700
C3105       C  0.81068999  0.52656636  0.97664295     0.26500
C3106       C  0.78159463  0.97631349  0.95692693     0.26500
C3107       C  0.68838004  0.53115352  0.97431433     0.26500
C3108       C  0.66203585  0.98536070  0.94885334     0.26500
C3109       C  0.79709421  0.57271378  0.98476604     0.35100
C3110       C  0.74762240  0.57311790  0.98552433     0.35100
C3111       C  0.73272113  0.94800195  0.93211597     0.35100
C3112       C  0.68501444  0.95086699  0.93005547     0.35100
C3113       C  0.81803427  0.50325655  0.98708956    -0.22400
C3114       C  0.79902815  0.97070339  0.97343626    -0.22400
C3115       C  0.65539917  0.50811380  0.98197265    -0.22400
C3116       C  0.63700141  0.99406512  0.95419391    -0.22400
C3117       C  0.79915272  0.59583876  0.00021033    -0.23500
C3118       C  0.76871524  0.59505026  0.00105415    -0.23500
C3119       C  0.71621510  0.93105357  0.91338905    -0.23500
C3120       C  0.68725750  0.93429497  0.91175365    -0.23400
C3121       C  0.82247614  0.56167067  0.98296843    -0.18800
C3122       C  0.76496691  0.95284081  0.93971064    -0.18800
C3123       C  0.65676613  0.95669028  0.93503832    -0.18800
C3124       C  0.71195092  0.56446264  0.98358556    -0.18800
H3125       H  0.82978710  0.50597970  0.00281901     0.14100
H3126       H  0.79898889  0.94690010  0.97697509     0.14100
H3127       H  0.64371747  0.50856915  0.99722173     0.14100
H3128       H  0.60971539  0.98002609  0.95088200     0.14100
H3129       H  0.81735235  0.60775552  0.01279444     0.12400
H3130       H  0.76159552  0.60455102  0.01459307     0.12400
H3131       H  0.72428307  0.91862743  0.90157677     0.12400
H3132       H  0.67112980  0.92747368  0.89790231     0.12400
H3133       H  0.78069070  0.52130163  0.94828350     0.25700
H3134       H  0.71835876  0.52559324  0.94849997     0.25600
C3135       C  0.66082751  0.60382685  0.01645368     0.86000
C3136       C  0.66596985  0.57864349  0.00121851    -0.54300
C3137       C  0.69954612  0.58915134  0.99433291     0.08900
C3138       C  0.72384776  0.62796472  0.00205508     0.19900
C3139       C  0.68726229  0.61209184  0.03400136    -0.55000
C3140       C  0.72026073  0.62424140  0.02764897     0.09000
C3141       C  0.67386606  0.63673596  0.00421763    -0.54500
C3142       C  0.70556466  0.64973869  0.99513894     0.09600
H3143       H  0.64446987  0.55431648  0.99741467     0.14100
H3144       H  0.75059687  0.64022520  0.99570600    -0.00200
H3145       H  0.67978579  0.60757360  0.05102306     0.14400
H3146       H  0.65917473  0.65018577  0.00422943     0.14200
C3147       C  0.91693778  0.85736597  0.00488978     0.86000
C3148       C  0.88264444  0.84234866  0.99266775    -0.54300
C3149       C  0.86489868  0.80719137  0.99041177     0.08900
C3150       C  0.88479926  0.78975883  0.00159401     0.19900
C3151       C  0.90866656  0.83815132  0.02630304    -0.55000
C3152       C  0.89153696  0.80378332  0.02532752     0.09000
C3153       C  0.93685074  0.84316202  0.99170385    -0.54500
C3154       C  0.92214261  0.80747819  0.99088554     0.09600
H3155       H  0.87332654  0.85836273  0.98564418     0.14100
H3156       H  0.87093994  0.76133754  0.00133077    -0.00200
H3157       H  0.91595447  0.85109498  0.04195302     0.14400
H3158       H  0.96008087  0.86028134  0.98296208     0.14200
C3159       C  0.91245651  0.59686443  0.01306888     0.86000
C3160       C  0.93320212  0.62966782  0.00022497    -0.54300
C3161       C  0.91537192  0.64387305  0.99070429     0.08900
C3162       C  0.87640172  0.62444202  0.99867386     0.19900
C3163       C  0.89482800  0.60611015  0.03056569    -0.55000
C3164       C  0.87762195  0.62194536  0.02395748     0.09000
C3165       C  0.88192620  0.57288049  0.99805355    -0.54500
C3166       C  0.86007633  0.58522766  0.99181969     0.09600
H3167       H  0.96109502  0.64172465  0.00004832     0.14100
H3168       H  0.86226337  0.63726310  0.99314968    -0.00200
H3169       H  0.89637191  0.60109130  0.04772293     0.14400
H3170       H  0.87760150  0.54798472  0.99375219     0.14200
O3171       O  0.88070823  0.68321599  0.16775190    -0.82300
C3172       C  0.77500993  0.65972323  0.11198557     0.97100
O3173       O  0.77038712  0.63949953  0.12748015    -0.71400
O3174       O  0.82643911  0.64030246  0.11578348    -0.75000
Al3175     Al  0.80859496  0.64194277  0.14284523     1.49000
C3176       C  0.85742268  0.65414853  0.10963013     0.92300
O3177       O  0.88401465  0.73603014  0.11806305    -0.81200
O3178       O  0.83361061  0.73459213  0.16989937    -0.74800
Al3179     Al  0.87958957  0.70821813  0.14273271     1.90100
O3180       O  0.84512795  0.75035691  0.12610451    -0.73900
O3181       O  0.77447580  0.67946146  0.16246177    -0.73700
O3182       O  0.79041055  0.69168848  0.11610556    -0.79400
O3183       O  0.78849449  0.64044568  0.17073733    -0.77600
O3184       O  0.83388557  0.68781007  0.14325683    -1.13700
O3185       O  0.84061471  0.63328798  0.15718150    -0.72900
C3186       C  0.86275969  0.65124738  0.17100309     0.97800
C3187       C  0.86923096  0.75327573  0.11384544     0.94200
Al3188     Al  0.81222949  0.71212412  0.14362530     1.55600
O3189       O  0.88135826  0.67634509  0.12158119    -0.77500
C3190       C  0.77244757  0.65635419  0.17554960     0.98400
C3191       C  0.86475316  0.74695417  0.17550028     0.93300
O3192       O  0.88544625  0.74295448  0.16326271    -0.82800
N3193       N  0.99798221  0.80464704  0.96377744    -0.37100
N3194       N  0.54687961  0.77865960  0.94423294    -0.57700
N3195       N  0.99250255  0.71042598  0.95620133    -0.37100
N3196       N  0.94759436  0.73701044  0.97853941    -0.57700
C3197       C  0.53136786  0.83164708  0.96110161     0.26500
C3198       C  0.97998413  0.81043199  0.97960787     0.26500
C3199       C  0.51658683  0.70177594  0.94606758     0.26500
C3200       C  0.96631014  0.68093044  0.96501769     0.26500
C3201       C  0.55613444  0.80917906  0.93409178     0.35100
C3202       C  0.55476669  0.75966295  0.93028443     0.35100
C3203       C  0.92858693  0.75356576  0.97885486     0.35100
C3204       C  0.92551709  0.70270109  0.97577658     0.35100
C3205       C  0.53574539  0.85548140  0.97697501    -0.22400
C3206       C  0.00258502  0.84067235  0.99042966    -0.22400
C3207       C  0.50657607  0.66782062  0.95099197    -0.22400
C3208       C  0.97475006  0.65501565  0.96182848    -0.22400
C3209       C  0.56821534  0.80857340  0.91360648    -0.23500
C3210       C  0.56879992  0.77829697  0.91154811    -0.23500
C3211       C  0.89425798  0.72958355  0.97521669    -0.23500
C3212       C  0.89231342  0.69764083  0.97340555    -0.23400
C3213       C  0.55421980  0.83757000  0.94328701    -0.18800
C3214       C  0.94321774  0.78998798  0.98273567    -0.18800
C3215       C  0.93525302  0.67633922  0.97613227    -0.18800
C3216       C  0.54687382  0.72474039  0.93331344    -0.18800
H3217       H  0.55832198  0.88052670  0.97946091     0.14100
H3218       H  0.99709608  0.85172640  0.00452103     0.14100
H3219       H  0.52069363  0.65417205  0.94875053     0.14100
H3220       H  0.95894378  0.62762910  0.96473174     0.14100
H3221       H  0.57445765  0.82700163  0.90084840     0.12400
H3222       H  0.57729400  0.77062430  0.89732384     0.12400
H3223       H  0.87309314  0.73446508  0.97249217     0.12400
H3224       H  0.86938549  0.67409721  0.96884619     0.12400
H3225       H  0.98746118  0.78542278  0.95191155     0.25700
H3226       H  0.99187345  0.73327794  0.95437813     0.25600
N3227       N  0.70189301  0.72007738  0.95954107    -0.37100
N3228       N  0.77202746  0.73954044  0.97555222    -0.57700
N3229       N  0.79364322  0.81056972  0.95922160    -0.37100
N3230       N  0.72277290  0.78959200  0.94234461    -0.57700
C3231       C  0.69616054  0.68964681  0.96875281     0.26500
C3232       C  0.67080485  0.71562020  0.95232559     0.26500
C3233       C  0.82290256  0.80806600  0.96196915     0.26500
C3234       C  0.79955493  0.83304324  0.94252594     0.26500
C3235       C  0.75280961  0.71079497  0.98750385     0.35100
C3236       C  0.80183819  0.75861116  0.98666425     0.35100
C3237       C  0.69080391  0.77222943  0.93298463     0.35100
C3238       C  0.74072484  0.82090118  0.93229554     0.35100
C3239       C  0.66147124  0.66579106  0.96594260    -0.22400
C3240       C  0.64540145  0.68316671  0.95883860    -0.22400
C3241       C  0.84675138  0.82751633  0.94619831    -0.22400
C3242       C  0.83169544  0.84202128  0.93355774    -0.22400
C3243       C  0.76979048  0.71244834  0.00649638    -0.23500
C3244       C  0.80115145  0.74213178  0.00574698    -0.23500
C3245       C  0.68895833  0.79281644  0.91690162    -0.23500
C3246       C  0.72017874  0.82240215  0.91602444    -0.23400
C3247       C  0.71957438  0.68359419  0.98213097    -0.18800
C3248       C  0.66449556  0.73724752  0.93752202    -0.18800
C3249       C  0.77679324  0.84556707  0.93514865    -0.18800
C3250       C  0.82936445  0.79027144  0.97921315    -0.18800
H3251       H  0.64793339  0.63842480  0.96925123     0.14100
H3252       H  0.61768169  0.67172651  0.95728285     0.14100
H3253       H  0.87208494  0.83022011  0.94375026     0.14100
H3254       H  0.84303947  0.85677969  0.91892435     0.14100
H3255       H  0.75976827  0.69493076  0.02005608     0.12400
H3256       H  0.82044264  0.75058414  0.01823215     0.12400
H3257       H  0.66922376  0.78663617  0.90501442     0.12400
H3258       H  0.72755095  0.84011985  0.90263621     0.12400
H3259       H  0.72578082  0.74203798  0.95755849     0.25700
H3260       H  0.77223769  0.80022949  0.96959197     0.25600
C3261       C  0.98927634  0.74423227  0.34371424     0.86000
C3262       C  0.00398411  0.72633414  0.33042883    -0.54300
C3263       C  0.53805393  0.74712890  0.32339765     0.08900
C3264       C  0.55549983  0.78631916  0.33108969     0.19900
C3265       C  0.51836523  0.76533767  0.36275766    -0.55000
C3266       C  0.55144840  0.78512832  0.35643749     0.09000
C3267       C  0.99477694  0.77579797  0.32983965    -0.54500
C3268       C  0.53100489  0.80108043  0.32394832     0.09600
H3269       H  0.98915523  0.69871940  0.32748892     0.14100
H3270       H  0.58252416  0.80138330  0.32526042    -0.00200
H3271       H  0.51100894  0.76302288  0.37980454     0.14400
H3272       H  0.97372937  0.77964962  0.32566054     0.14200
C3273       C  0.75609871  0.75342361  0.33367994     0.86000
C3274       C  0.77229134  0.78739417  0.32082230    -0.54300
C3275       C  0.75226178  0.80306885  0.31916575     0.08900
C3276       C  0.71619616  0.78142720  0.33061995     0.19900
C3277       C  0.74548847  0.76203807  0.35515040    -0.55000
C3278       C  0.72610015  0.77733707  0.35411802     0.09000
C3279       C  0.72148431  0.73104665  0.32154069    -0.54500
C3280       C  0.69850443  0.74355870  0.32085246     0.09600
H3281       H  0.79787868  0.79853494  0.31376162     0.14100
H3282       H  0.70004536  0.79372376  0.32927470    -0.00200
H3283       H  0.75363594  0.75713029  0.37076053     0.14400
H3284       H  0.71705040  0.70858846  0.31259407     0.14200
C3285       C  0.74081333  0.51141443  0.33473443     0.86000
C3286       C  0.70865891  0.49639521  0.32051231    -0.54300
C3287       C  0.69129942  0.96251464  0.31836236     0.08900
C3288       C  0.71023125  0.94551895  0.33051018     0.19900
C3289       C  0.72584594  0.99066882  0.35730492    -0.55000
C3290       C  0.71158141  0.95647850  0.35472298     0.09000
C3291       C  0.76336110  0.49793728  0.32383153    -0.54500
C3292       C  0.74871650  0.96554862  0.32310643     0.09600
H3293       H  0.70061171  0.51276734  0.31243677     0.14100
H3294       H  0.69866473  0.91758744  0.32742648    -0.00200
H3295       H  0.72991791  0.00192236  0.37349119     0.14400
H3296       H  0.78988613  0.51418250  0.31897356     0.14200
O3297       O  0.62405787  0.78832644  0.49548311    -0.82300
C3298       C  0.69609289  0.90205619  0.44133752     0.97100
O3299       O  0.67364144  0.89954834  0.45495317    -0.71400
O3300       O  0.62146227  0.84016696  0.44610557    -0.75000
Al3301     Al  0.64302449  0.85993551  0.47220792     1.49000
C3302       C  0.60805063  0.80943952  0.43983050     0.92300
O3303       O  0.67186420  0.79481950  0.44428161    -0.81200
O3304       O  0.71860594  0.84493588  0.49592995    -0.74800
Al3305     Al  0.64894649  0.79399127  0.46980852     1.90100
O3306       O  0.72368105  0.83616611  0.45202384    -0.73900
O3307       O  0.71659604  0.90154229  0.49024161    -0.73700
O3308       O  0.71399211  0.88800646  0.44524934    -0.79400
O3309       O  0.66210852  0.88126277  0.49837557    -0.77600
O3310       O  0.66884759  0.83972683  0.47101224    -1.13700
O3311       O  0.60673941  0.82573575  0.48983273    -0.72900
C3312       C  0.60619635  0.80177999  0.50093912     0.97800
C3313       C  0.70350951  0.81150715  0.43992741     0.94200
Al3314     Al  0.71465247  0.86570520  0.47089648     1.55600
O3315       O  0.61142725  0.78735087  0.45085081    -0.77500
C3316       C  0.69334146  0.90076836  0.50262791     0.98400
C3317       C  0.70563596  0.81329807  0.49988935     0.93300
O3318       O  0.68219944  0.79080937  0.48803756    -0.82800
C3319       C  0.66863124  0.60075381  0.24190292     0.86000
C3320       C  0.65929756  0.56599878  0.25334598    -0.54300
C3321       C  0.62410219  0.54288643  0.25629081     0.08900
C3322       C  0.60197004  0.55960168  0.24845486     0.19900
C3323       C  0.64690890  0.58908282  0.22151917    -0.55000
C3324       C  0.61284661  0.56872675  0.22433272     0.09000
C3325       C  0.65175023  0.61587840  0.25665108    -0.54500
C3326       C  0.61676360  0.59584234  0.25995794     0.09600
H3327       H  0.67901282  0.56097053  0.25907516     0.14100
H3328       H  0.57399528  0.54263154  0.25116412    -0.00200
H3329       H  0.65793434  0.59623322  0.20525583     0.14400
H3330       H  0.66667933  0.64165465  0.26331061     0.14200
C3331       C  0.91319613  0.83380695  0.24577168     0.86000
C3332       C  0.88801836  0.84364337  0.25701721    -0.54300
C3333       C  0.89982728  0.87846594  0.25999251     0.08900
C3334       C  0.93901176  0.89993764  0.25254294     0.19900
C3335       C  0.92577013  0.85632052  0.22545682    -0.55000
C3336       C  0.93672215  0.89029944  0.22774384     0.09000
C3337       C  0.94367634  0.84842026  0.26083807    -0.54500
C3338       C  0.95909725  0.88301474  0.26434688     0.09600
H3339       H  0.86371119  0.82424674  0.26322392     0.14100
H3340       H  0.95206509  0.92772805  0.25615975    -0.00200
H3341       H  0.92370502  0.84514509  0.20947269     0.14400
H3342       H  0.95304239  0.83231250  0.26782388     0.14200
C3343       C  0.89882369  0.58839599  0.23846191     0.86000
C3344       C  0.93414038  0.61327132  0.24847962    -0.54300
C3345       C  0.95244761  0.59831524  0.25683774     0.08900
C3346       C  0.93327782  0.55821291  0.25111615     0.19900
C3347       C  0.90958446  0.57293882  0.22034990    -0.55000
C3348       C  0.92718702  0.55707723  0.22599863     0.09000
C3349       C  0.88011072  0.55982889  0.25543337    -0.54500
C3350       C  0.89522523  0.54008647  0.26041150     0.09600
H3351       H  0.94636344  0.64047252  0.24480872     0.14100
H3352       H  0.94828331  0.54666796  0.25748099    -0.00200
H3353       H  0.90516671  0.57596625  0.20329015     0.14400
H3354       H  0.85655704  0.55661803  0.26256557     0.14200
O3355       O  0.98763921  0.55227092  0.08406759    -0.82300
C3356       C  0.96233782  0.94387779  0.13953077     0.97100
O3357       O  0.94056183  0.94269267  0.12581608    -0.71400
O3358       O  0.93478987  0.49638537  0.13270014    -0.75000
Al3359     Al  0.94559460  0.97971686  0.10682652     1.49000
C3360       C  0.94922832  0.52714604  0.13895324     0.92300
O3361       O  0.53288193  0.55027773  0.13637869    -0.81200
O3362       O  0.54081091  0.50867818  0.08133324    -0.74800
Al3363     Al  0.51282000  0.55092150  0.11012280     1.90100
O3364       O  0.55387958  0.51745305  0.12583585    -0.73900
O3365       O  0.98469314  0.94335256  0.08864595    -0.73700
O3366       O  0.99388204  0.95791224  0.13431936    -0.79400
O3367       O  0.94575489  0.95767247  0.08109548    -0.77600
O3368       O  0.98620183  0.50240117  0.10760868    -1.13700
O3369       O  0.93447903  0.50998711  0.08823300    -0.72900
C3370       C  0.95655464  0.53691865  0.07840937     0.97800
C3371       C  0.55289181  0.53831581  0.13940143     0.94200
Al3372     Al  0.51038757  0.97577147  0.10763964     1.55600
O3373       O  0.97272209  0.54995501  0.12741274    -0.77500
C3374       C  0.96106589  0.94132762  0.07623573     0.98400
C3375       C  0.55611819  0.54131978  0.07970800     0.93300
O3376       O  0.55201545  0.55910575  0.09406400    -0.82800
N3377       N  0.53166989  0.67414112  0.28686179    -0.37100
N3378       N  0.54576453  0.61962660  0.27415668    -0.57700
N3379       N  0.62185598  0.66983103  0.28923607    -0.37100
N3380       N  0.60593937  0.72269533  0.30334267    -0.57700
C3381       C  0.49982593  0.65071067  0.27850664     0.26500
C3382       C  0.52973950  0.70200447  0.29458033     0.26500
C3383       C  0.61585398  0.63671677  0.28810863     0.26500
C3384       C  0.64689867  0.68685849  0.30456324     0.26500
C3385       C  0.51524032  0.60766441  0.26331987     0.35100
C3386       C  0.56378942  0.60558712  0.26475409     0.35100
C3387       C  0.58671362  0.73377210  0.31459151     0.35100
C3388       C  0.63618439  0.73380107  0.31456880     0.35100
C3389       C  0.98069400  0.66948791  0.27882386    -0.22400
C3390       C  0.49731053  0.69707624  0.28960513    -0.22400
C3391       C  0.63618448  0.63237261  0.30328621    -0.22400
C3392       C  0.65467964  0.66327329  0.31404686    -0.22400
C3393       C  0.51411990  0.58559185  0.24706081    -0.23500
C3394       C  0.54426416  0.58423531  0.24798277    -0.23500
C3395       C  0.60381298  0.74971882  0.33328676    -0.23500
C3396       C  0.63481063  0.75016714  0.33329980    -0.23400
C3397       C  0.48997490  0.61859892  0.26680373    -0.18800
C3398       C  0.55310745  0.72856320  0.30942289    -0.18800
C3399       C  0.66075862  0.72220839  0.31151145    -0.18800
C3400       C  0.59733072  0.61202871  0.27142343    -0.18800
H3401       H  0.95352811  0.65917064  0.27647304     0.14100
H3402       H  0.99265790  0.72084002  0.28900681     0.14100
H3403       H  0.63736881  0.60905699  0.30630729     0.14100
H3404       H  0.67065823  0.66704552  0.32808899     0.14100
H3405       H  0.49516211  0.57343196  0.23451145     0.12400
H3406       H  0.55098297  0.57030357  0.23649956     0.12400
H3407       H  0.59300932  0.75662145  0.34669315     0.12400
H3408       H  0.65182585  0.75738272  0.34709848     0.12400
H3409       H  0.55329578  0.67124517  0.28838804     0.25700
H3410       H  0.61194710  0.68088693  0.27855284     0.25600
N3411       N  0.82728219  0.97129818  0.29618147    -0.37100
N3412       N  0.87260545  0.94628076  0.27716640    -0.57700
N3413       N  0.82390078  0.87548628  0.29123356    -0.37100
N3414       N  0.77571606  0.89800419  0.30863280    -0.57700
C3415       C  0.84286016  0.99215879  0.27872943     0.26500
C3416       C  0.79521884  0.96811432  0.29819936     0.26500
C3417       C  0.84099002  0.87046373  0.27450556     0.26500
C3418       C  0.79179062  0.84735104  0.29208746     0.26500
C3419       C  0.88914846  0.97920021  0.26898516     0.35100
C3420       C  0.88755805  0.92896177  0.26767559     0.35100
C3421       C  0.76348765  0.91589768  0.32005856     0.35100
C3422       C  0.76179332  0.86595658  0.31753828     0.35100
C3423       C  0.81463872  0.49532529  0.26670343    -0.22400
C3424       C  0.78964072  0.98523218  0.28158843    -0.22400
C3425       C  0.81825656  0.84037250  0.26363859    -0.22400
C3426       C  0.78775326  0.82520444  0.27520288    -0.22400
C3427       C  0.91319157  0.98115918  0.25387277    -0.23500
C3428       C  0.91056992  0.94971672  0.25242599    -0.23500
C3429       C  0.74202233  0.89516776  0.33647683    -0.23500
C3430       C  0.74074409  0.86378048  0.33481157    -0.23400
C3431       C  0.87759263  0.00422488  0.27093136    -0.18800
C3432       C  0.77004748  0.94958116  0.31434402    -0.18800
C3433       C  0.76773191  0.83929390  0.30929859    -0.18800
C3434       C  0.87628597  0.89293706  0.26871868    -0.18800
H3435       H  0.81681796  0.50810044  0.25171032     0.14100
H3436       H  0.76146620  0.48097335  0.27559016     0.14100
H3437       H  0.82263271  0.83060694  0.24854509     0.14100
H3438       H  0.76498220  0.80081369  0.27155402     0.14100
H3439       H  0.92626737  0.99952431  0.24133552     0.12400
H3440       H  0.91851870  0.94112944  0.23840559     0.12400
H3441       H  0.72868417  0.90147768  0.34870023     0.12400
H3442       H  0.72638250  0.84262273  0.34573001     0.12400
H3443       H  0.83856854  0.96173893  0.30696536     0.25700
H3444       H  0.83466948  0.89509606  0.30284597     0.25600
N3445       N  0.52825950  0.87603763  0.29227721    -0.37100
N3446       N  0.59716847  0.89366820  0.30429974    -0.57700
N3447       N  0.62322764  0.96797502  0.28793601    -0.37100
N3448       N  0.55451163  0.95245799  0.27609075    -0.57700
C3449       C  0.52109359  0.85113440  0.30762253     0.26500
C3450       C  0.50168583  0.88303023  0.29203081     0.26500
C3451       C  0.65090172  0.96301182  0.28982090     0.26500
C3452       C  0.63081136  0.99204476  0.27205791     0.26500
C3453       C  0.57973393  0.86347174  0.31565053     0.35100
C3454       C  0.62897023  0.91195746  0.31370813     0.35100
C3455       C  0.52342158  0.93212566  0.26643119     0.35100
C3456       C  0.57262517  0.98056710  0.26303348     0.35100
C3457       C  0.49041358  0.84414872  0.31793942    -0.22400
C3458       C  0.97522328  0.86032761  0.30788142    -0.22400
C3459       C  0.67565998  0.98288697  0.27461956    -0.22400
C3460       C  0.66092349  0.49832063  0.26323889    -0.22400
C3461       C  0.60013349  0.86436814  0.33252577    -0.23500
C3462       C  0.63080422  0.89375973  0.33112905    -0.23500
C3463       C  0.52282202  0.94583891  0.24666369    -0.23500
C3464       C  0.55303948  0.97676405  0.24474394    -0.23400
C3465       C  0.54384675  0.83823571  0.31409435    -0.18800
C3466       C  0.49542782  0.90174053  0.27544170    -0.18800
C3467       C  0.60883609  0.00511556  0.26477756    -0.18800
C3468       C  0.65633760  0.94454092  0.30669861    -0.18800
H3469       H  0.97669510  0.82673151  0.33279701     0.14100
H3470       H  0.95118161  0.85987586  0.31155526     0.14100
H3471       H  0.69716349  0.47990949  0.27119370     0.14100
H3472       H  0.67193120  0.51202517  0.24825295     0.14100
H3473       H  0.59281976  0.84830893  0.34632661     0.12400
H3474       H  0.65047475  0.90091026  0.34309513     0.12400
H3475       H  0.50362933  0.93342126  0.23424224     0.12400
H3476       H  0.56059855  0.99268872  0.23046112     0.12400
H3477       H  0.54853666  0.88553566  0.28105184     0.25700
H3478       H  0.60215544  0.95807371  0.29855477     0.25600
C3479       C  0.83251358  0.92955754  0.67816929     0.86000
C3480       C  0.83994852  0.90282755  0.66660303    -0.54300
C3481       C  0.87253460  0.91548131  0.65745084     0.08900
C3482       C  0.89582188  0.95513100  0.66393869     0.19900
C3483       C  0.85918933  0.94263433  0.69590729    -0.55000
C3484       C  0.89209136  0.95446535  0.68978905     0.09000
C3485       C  0.84335986  0.95930142  0.66248182    -0.54500
C3486       C  0.87631584  0.97436179  0.65483089     0.09600
H3487       H  0.82416358  0.87572390  0.67016578     0.14100
H3488       H  0.92288460  0.96771602  0.65802763    -0.00200
H3489       H  0.85185736  0.93970683  0.71300847     0.14400
H3490       H  0.82619390  0.96949483  0.65919876     0.14200
C3491       C  0.58407515  0.67935348  0.67947191     0.86000
C3492       C  0.54963293  0.66988839  0.66770624    -0.54300
C3493       C  0.53157411  0.63670199  0.65921602     0.08900
C3494       C  0.55015652  0.61586382  0.66516251     0.21100
C3495       C  0.57133731  0.65267422  0.69719990    -0.55000
C3496       C  0.55445644  0.61963172  0.69072645     0.09000
C3497       C  0.60476764  0.66913903  0.66416481    -0.54500
C3498       C  0.58816619  0.63611345  0.65606013     0.09600
H3499       H  0.53805161  0.68618481  0.66894368     0.14100
H3500       H  0.53573969  0.58968424  0.65830152    -0.00200
H3501       H  0.57519898  0.65945470  0.71437442     0.14400
H3502       H  0.63217778  0.68648799  0.66210993     0.14200
C3503       C  0.57723197  0.91768474  0.67960913     0.86000
C3504       C  0.60202974  0.95312799  0.66926222    -0.54300
C3505       C  0.58691546  0.97090922  0.66040823     0.08900
C3506       C  0.54700329  0.95129287  0.66550999     0.19900
C3507       C  0.56085793  0.92796581  0.69733079    -0.55000
C3508       C  0.54469097  0.94511048  0.69116767     0.09000
C3509       C  0.54841511  0.89769831  0.66312439    -0.54500
C3510       C  0.53108199  0.91371436  0.65534825     0.09600
H3511       H  0.62963390  0.96554356  0.67163340     0.14100
H3512       H  0.53497696  0.96584537  0.65890462    -0.00200
H3513       H  0.56263974  0.92265714  0.71441006     0.14400
H3514       H  0.54011656  0.87083208  0.66016106     0.14200
O3515       O  0.54517509  0.50050411  0.83530708    -0.82300
C3516       C  0.92716477  0.97472611  0.77899370     0.97100
O3517       O  0.92242740  0.95128698  0.79251586    -0.71400
O3518       O  0.97615744  0.94557924  0.78603056    -0.75000
Al3519     Al  0.95653454  0.95119411  0.81233794     1.49000
C3520       C  0.50378764  0.96247924  0.77804404     0.92300
O3521       O  0.54588763  0.54310657  0.78193252    -0.81200
O3522       O  0.99754021  0.55737479  0.83672185    -0.74800
Al3523     Al  0.54371741  0.52142905  0.80864208     1.90100
O3524       O  0.00513683  0.56658144  0.79223784    -0.73900
O3525       O  0.93688349  0.50438936  0.83284763    -0.73700
O3526       O  0.94652887  0.51213610  0.78687613    -0.79400
O3527       O  0.93395115  0.95286346  0.83826339    -0.77600
O3528       O  0.99210244  0.50593488  0.81171062    -1.13700
O3529       O  0.98520623  0.94173139  0.83239923    -0.72900
C3530       C  0.50695821  0.96067966  0.84078395     0.97800
C3531       C  0.53189197  0.56053839  0.77662767     0.94200
Al3532     Al  0.97284784  0.53273418  0.81216707     1.55600
O3533       O  0.54465855  0.48628709  0.79066354    -0.77500
C3534       C  0.92240151  0.97267645  0.84326444     0.98400
C3535       C  0.53431666  0.56724791  0.83851150     0.93300
O3536       O  0.55335052  0.56095408  0.82617902    -0.82800
C3537       C  0.73646879  0.50105614  0.56995050     0.86000
C3538       C  0.71905341  0.51360952  0.58612753    -0.54300
C3539       C  0.73697522  0.54777214  0.59204103     0.08900
C3540       C  0.77368874  0.56602611  0.58079814     0.19900
C3541       C  0.74599284  0.52513261  0.55111205    -0.55000
C3542       C  0.76514488  0.55880567  0.55560076     0.09000
C3543       C  0.77246645  0.51104009  0.57930903    -0.54500
C3544       C  0.79224394  0.54445819  0.58681642     0.09600
H3545       H  0.69244984  0.99513235  0.58908848     0.14100
H3546       H  0.78887548  0.59330203  0.58576369    -0.00200
H3547       H  0.73894956  0.51592378  0.53447114     0.14400
H3548       H  0.78556930  0.99505850  0.57677799     0.14200
C3549       C  0.00188766  0.75127418  0.56544990     0.86000
C3550       C  0.98785224  0.72019004  0.58063309    -0.54300
C3551       C  0.95392093  0.70606457  0.58697080     0.08900
C3552       C  0.93693840  0.72638139  0.57624506     0.19900
C3553       C  0.97788343  0.73928867  0.54635986    -0.55000
C3554       C  0.94421252  0.72610483  0.55089877     0.09000
C3555       C  0.99354094  0.77783242  0.57621719    -0.54500
C3556       C  0.96006523  0.76546181  0.58335315     0.09600
H3557       H  0.50202300  0.70412623  0.58187012     0.14100
H3558       H  0.90954882  0.71606931  0.58086521    -0.00200
H3559       H  0.98703941  0.74166044  0.52966741     0.14400
H3560       H  0.50974317  0.80152426  0.57520096     0.14200
C3561       C  0.75468984  0.76556216  0.56754956     0.86000
C3562       C  0.78472423  0.78331910  0.58278530    -0.54300
C3563       C  0.79962521  0.76453508  0.58932255     0.08900
C3564       C  0.77928463  0.72595161  0.58007937     0.19900
C3565       C  0.76820960  0.75285395  0.54933780    -0.55000
C3566       C  0.77767095  0.72943590  0.55445840     0.09000
C3567       C  0.72790291  0.73158451  0.57923570    -0.54500
C3568       C  0.74032999  0.71087491  0.58739931     0.09600
H3569       H  0.79531375  0.81046183  0.58648198     0.14100
H3570       H  0.79136055  0.71066686  0.58539374    -0.00200
H3571       H  0.76634457  0.75909625  0.53249289     0.14400
H3572       H  0.70052553  0.72202942  0.57814263     0.14200
O3573       O  0.87527700  0.66536730  0.41747403    -0.82300
C3574       C  0.79375600  0.69383225  0.46778161     0.97100
O3575       O  0.82514902  0.70985462  0.46212637    -0.71400
O3576       O  0.88258011  0.71111577  0.45131795    -0.75000
Al3577     Al  0.84415990  0.70776681  0.43467449     1.49000
C3578       C  0.88230513  0.68996790  0.46498846     0.92300
O3579       O  0.80524184  0.60136807  0.45473578    -0.81200
O3580       O  0.76617084  0.60617161  0.41478524    -0.74800
Al3581     Al  0.83852070  0.63615723  0.43599851     1.90100
O3582       O  0.76714376  0.61757838  0.45959945    -0.73900
O3583       O  0.77378360  0.66608891  0.40768696    -0.73700
O3584       O  0.77089239  0.67577818  0.45381032    -0.79400
O3585       O  0.81283925  0.71699062  0.41742050    -0.77600
O3586       O  0.81839934  0.66194759  0.43471019    -1.13700
O3587       O  0.86544101  0.70736708  0.40797917    -0.72900
C3588       C  0.87999802  0.68950179  0.40471903     0.97800
C3589       C  0.78189738  0.60158660  0.46625271     0.94200
Al3590     Al  0.77278554  0.64272846  0.43399415     1.55600
O3591       O  0.86262657  0.65814766  0.46178054    -0.77500
C3592       C  0.79138984  0.69767860  0.40326914     0.98400
C3593       C  0.78689477  0.60052482  0.40375827     0.93300
O3594       O  0.81717693  0.61180833  0.41043685    -0.82800
N3595       N  0.96437036  0.84167601  0.61895000    -0.37100
N3596       N  0.93908043  0.88813663  0.63747121    -0.57700
N3597       N  0.86905162  0.83828606  0.62319874    -0.37100
N3598       N  0.89373837  0.79108703  0.60417435    -0.57700
C3599       C  0.99433461  0.86710881  0.62806278     0.26500
C3600       C  0.97096413  0.81793142  0.60876649     0.26500
C3601       C  0.86123811  0.86021248  0.63450783     0.26500
C3602       C  0.83887553  0.80968068  0.61729115     0.26500
C3603       C  0.97087407  0.90214921  0.64714737     0.35100
C3604       C  0.92064180  0.90092414  0.64821466     0.35100
C3605       C  0.91275135  0.78140119  0.59146765     0.35100
C3606       C  0.86309588  0.78052577  0.59379700     0.35100
C3607       C  0.02041657  0.86012144  0.62237851    -0.22400
C3608       C  0.00554227  0.82851372  0.61231147    -0.22400
C3609       C  0.82556008  0.84536090  0.63452177    -0.22400
C3610       C  0.81180775  0.81299316  0.62573590    -0.22400
C3611       C  0.97125011  0.92320693  0.66373464    -0.23500
C3612       C  0.94046397  0.92162900  0.66467949    -0.23500
C3613       C  0.89391618  0.76518601  0.57310065    -0.23500
C3614       C  0.86349451  0.76574857  0.57425765    -0.23400
C3615       C  0.99867065  0.89479964  0.64273877    -0.18800
C3616       C  0.94745022  0.78842971  0.59535463    -0.18800
C3617       C  0.83450334  0.78376632  0.60145849    -0.18800
C3618       C  0.88513867  0.89205935  0.64560490    -0.18800
H3619       H  0.54580598  0.87372082  0.62490220     0.14100
H3620       H  0.01947013  0.81501778  0.60898171     0.14100
H3621       H  0.80996613  0.85666100  0.63865544     0.14100
H3622       H  0.78441673  0.79527449  0.62399328     0.14100
H3623       H  0.98904214  0.93582341  0.67639956     0.12400
H3624       H  0.93301871  0.93153345  0.67809810     0.12400
H3625       H  0.90137764  0.75495228  0.55966276     0.12400
H3626       H  0.84459090  0.75773077  0.56154112     0.12400
H3627       H  0.94066834  0.84022261  0.62021353     0.25700
H3628       H  0.89316835  0.84384982  0.61770535     0.25600
N3629       N  0.71261018  0.61804586  0.60847858    -0.37100
N3630       N  0.66252431  0.63942518  0.62103970    -0.57700
N3631       N  0.61283313  0.56703212  0.63715042    -0.37100
N3632       N  0.66304420  0.54617400  0.62532727    -0.57700
C3633       C  0.72403627  0.64774981  0.59653779     0.26500
C3634       C  0.72531114  0.59876660  0.59886074     0.26500
C3635       C  0.59918380  0.58560581  0.64664897     0.26500
C3636       C  0.59844836  0.53535749  0.64732591     0.26500
C3637       C  0.68729127  0.67018923  0.61232141     0.35100
C3638       C  0.63650229  0.64432803  0.62903378     0.35100
C3639       C  0.69142691  0.54331284  0.61995029     0.35100
C3640       C  0.63918300  0.51554464  0.63465941     0.35100
C3641       C  0.74296133  0.64636381  0.57939082    -0.22400
C3642       C  0.74501352  0.61713701  0.58120232    -0.22400
C3643       C  0.57601924  0.56472198  0.66227691    -0.22400
C3644       C  0.57586366  0.53456212  0.66269904    -0.22400
C3645       C  0.67705785  0.69453950  0.61560078    -0.23500
C3646       C  0.64431550  0.67774377  0.62398232    -0.23500
C3647       C  0.68619854  0.51190356  0.62755061    -0.23500
C3648       C  0.65257874  0.49342476  0.63422340    -0.23400
C3649       C  0.71711643  0.67573381  0.59966333    -0.18800
C3650       C  0.71863710  0.56466701  0.60476536    -0.18800
C3651       C  0.60713890  0.50826660  0.64534415    -0.18800
C3652       C  0.60785312  0.62108972  0.64286805    -0.18800
H3653       H  0.75204088  0.66296016  0.56566861     0.14100
H3654       H  0.75773528  0.61018436  0.56916298     0.14100
H3655       H  0.56275030  0.57014101  0.67467282     0.14100
H3656       H  0.56326395  0.51655683  0.67525286     0.14100
H3657       H  0.69119927  0.72191862  0.61263328     0.12400
H3658       H  0.62862031  0.68979310  0.62645096     0.12400
H3659       H  0.70375092  0.50169172  0.62659531     0.12400
H3660       H  0.63642619  0.96276555  0.63609618     0.12400
H3661       H  0.69829802  0.61180630  0.62282818     0.25700
H3662       H  0.63028222  0.57542853  0.62427055     0.25600
N3663       N  0.93841609  0.56955995  0.64008494    -0.37100
N3664       N  0.95502520  0.63946160  0.62641532    -0.57700
N3665       N  0.88522723  0.61317192  0.60544169    -0.37100
N3666       N  0.86897313  0.54343176  0.61887369    -0.57700
C3667       C  0.96732062  0.58883391  0.65237376     0.26500
C3668       C  0.92118033  0.53698403  0.64867759     0.26500
C3669       C  0.90302557  0.64499601  0.59585263     0.26500
C3670       C  0.85462802  0.59436902  0.59458601     0.26500
C3671       C  0.98528788  0.64773354  0.63701948     0.35100
C3672       C  0.95827383  0.66931695  0.61780621     0.35100
C3673       C  0.86743968  0.51321613  0.62549837     0.35100
C3674       C  0.83825722  0.53512110  0.60875708     0.35100
C3675       C  0.96779525  0.56795774  0.66878135    -0.22400
C3676       C  0.94002865  0.53576580  0.66606782    -0.22400
C3677       C  0.88305328  0.64606084  0.57906486    -0.22400
C3678       C  0.85330122  0.61507650  0.57836753    -0.22400
C3679       C  0.00735514  0.68284767  0.63447405    -0.23500
C3680       C  0.98949114  0.69652084  0.62455702    -0.23500
C3681       C  0.83716395  0.48607000  0.61767934    -0.23500
C3682       C  0.81774683  0.49957608  0.60982412    -0.23400
C3683       C  0.99295030  0.62473188  0.64970714    -0.18800
C3684       C  0.88832966  0.50879303  0.64202193    -0.18800
C3685       C  0.82903063  0.55847240  0.59757434    -0.18800
C3686       C  0.93701107  0.67273334  0.60121609    -0.18800
H3687       H  0.98514454  0.57483142  0.68229589     0.14100
H3688       H  0.93422041  0.51485003  0.67693621     0.14100
H3689       H  0.88908261  0.66570811  0.56715905     0.14100
H3690       H  0.83438895  0.60867731  0.56587254     0.14100
H3691       H  0.53860001  0.69243044  0.63353390     0.12400
H3692       H  0.00000144  0.72370589  0.62120321     0.12400
H3693       H  0.82760511  0.95764742  0.62207048     0.12400
H3694       H  0.79054141  0.48394315  0.60731517     0.12400
H3695       H  0.93155321  0.57759251  0.62605187     0.25700
H3696       H  0.89303541  0.60521922  0.61909603     0.25600
C3697       C  0.79911030  0.69713276  0.53010361    -0.02400
C3698       C  0.77372270  0.70571708  0.53551070     0.07300
C3699       C  0.74806692  0.69895046  0.51936312    -0.02500
C3700       C  0.75534470  0.69770959  0.49715155    -0.02500
C3701       C  0.78443518  0.69505573  0.49118184     0.07500
C3702       C  0.80295160  0.69003774  0.50822169    -0.02700
Br3703     Br  0.82701432  0.66574674  0.50299069    -0.01200
Br3704     Br  0.82430197  0.68905146  0.55257064    -0.01300
Br3705     Br  0.72659630  0.70184569  0.47537803    -0.01200
Br3706     Br  0.70304906  0.69170132  0.52769754    -0.01200
C3707       C  0.92165239  0.74074115  0.51764663    -0.02400
C3708       C  0.92203437  0.71487104  0.53092296     0.07300
C3709       C  0.91704417  0.68437926  0.52029582    -0.02500
C3710       C  0.90881938  0.67884283  0.49796151    -0.02500
C3711       C  0.90214842  0.70192707  0.48597714     0.07500
C3712       C  0.90941978  0.73355418  0.49603016    -0.02700
Br3713     Br  0.90361510  0.76825886  0.48085871    -0.01200
Br3714     Br  0.94562925  0.78858267  0.52687460    -0.01300
Br3715     Br  0.91092770  0.64159350  0.48312926    -0.01200
Br3716     Br  0.92798645  0.65277764  0.53503296    -0.01200
C3717       C  0.80000069  0.57768626  0.52200838    -0.02400
C3718       C  0.77513845  0.58012245  0.53536629     0.07300
C3719       C  0.74867202  0.58368390  0.52473011    -0.02500
C3720       C  0.74933693  0.58851593  0.50204422    -0.02500
C3721       C  0.77514283  0.58741967  0.48897867     0.07500
C3722       C  0.79857723  0.57902931  0.49914562    -0.02700
Br3723     Br  0.82578487  0.56425329  0.48221562    -0.01200
Br3724     Br  0.83139393  0.56414177  0.53450914    -0.01300
Br3725     Br  0.71166162  0.59234357  0.48906465    -0.01200
Br3726     Br  0.70644081  0.57349170  0.53987384    -0.01200
C3727       C  0.55406947  0.98131355  0.72412205    -0.02400
C3728       C  0.52990088  0.95496662  0.71021063     0.07300
C3729       C  0.49919904  0.92845856  0.72010591    -0.02500
C3730       C  0.49154201  0.93016246  0.74226078    -0.02500
C3731       C  0.51445365  0.95801466  0.75547913     0.07500
C3732       C  0.54690797  0.98217923  0.74648074    -0.02700
Br3733     Br  0.58491458  0.01220651  0.76505952    -0.01200
Br3734     Br  0.60090564  0.01154041  0.71404663    -0.01300
Br3735     Br  0.95474438  0.88781140  0.75665928    -0.01200
Br3736     Br  0.97169098  0.88439690  0.70595656    -0.01200
C3737       C  0.51568002  0.59195710  0.72223234    -0.02400
C3738       C  0.54322655  0.59456524  0.70916117     0.07300
C3739       C  0.56894227  0.58945934  0.71939952    -0.02500
C3740       C  0.56600281  0.57991933  0.74147127    -0.02500
C3741       C  0.53734700  0.57530742  0.75408612     0.07500
C3742       C  0.51317810  0.58316474  0.74442461    -0.02700
Br3743     Br  0.48012447  0.58878916  0.76182611    -0.01200
Br3744     Br  0.48581489  0.60880392  0.71137618    -0.01300
Br3745     Br  0.60549896  0.58085758  0.75529397    -0.01200
Br3746     Br  0.61263472  0.60313909  0.70511577    -0.01200
C3747       C  0.93446492  0.98963484  0.71787436    -0.02400
C3748       C  0.91546648  0.95720547  0.70853663     0.07300
C3749       C  0.90311324  0.92866338  0.72308777    -0.02500
C3750       C  0.90379355  0.93333863  0.74605425    -0.02500
C3751       C  0.91819387  0.96703084  0.75503040     0.07500
C3752       C  0.93092371  0.99473446  0.74002926    -0.02700
Br3753     Br  0.90971981  0.53617665  0.76016490    -0.01200
Br3754     Br  0.89519515  0.52564863  0.70851816    -0.01300
Br3755     Br  0.87878208  0.89328181  0.76428780    -0.01200
Br3756     Br  0.88263805  0.88289022  0.71100825    -0.01200
C3757       C  0.91354385  0.51446762  0.19651523    -0.02400
C3758       C  0.93884738  0.54498525  0.20693729     0.07300
C3759       C  0.96443675  0.57154604  0.19380999    -0.02500
C3760       C  0.96519337  0.56741888  0.17118504    -0.02500
C3761       C  0.94179867  0.53566443  0.16117286     0.07500
C3762       C  0.91490373  0.50989007  0.17395331    -0.02700
Br3763     Br  0.88146682  0.97259123  0.15903251    -0.01200
Br3764     Br  0.87235596  0.48153647  0.21187004    -0.01300
Br3765     Br  0.49701834  0.61120076  0.15342353    -0.01200
Br3766     Br  0.99334955  0.61735827  0.20579914    -0.01200
C3767       C  0.91407056  0.89008740  0.18955746    -0.02400
C3768       C  0.93713480  0.90933543  0.20686600     0.07300
C3769       C  0.96207673  0.94378668  0.20194550    -0.02500
C3770       C  0.96819503  0.95474204  0.18004901    -0.02500
C3771       C  0.95174355  0.93177457  0.16254896     0.07500
C3772       C  0.92298236  0.89971077  0.16757120    -0.02700
Br3773     Br  0.89589910  0.86874887  0.14458381    -0.01200
Br3774     Br  0.86795821  0.85294150  0.19593953    -0.01300
Br3775     Br  0.99365545  0.00287916  0.17468899    -0.01200
Br3776     Br  0.98382109  0.97884230  0.22400725    -0.01200
C3777       C  0.58014920  0.57831390  0.17050196    -0.02400
C3778       C  0.57272934  0.54725368  0.15994429     0.07300
C3779       C  0.57886252  0.52302733  0.17103978    -0.02500
C3780       C  0.59143587  0.52987226  0.19239467    -0.02500
C3781       C  0.59230603  0.55756232  0.20419864     0.07500
C3782       C  0.58752793  0.58240869  0.19278985    -0.02700
Br3783     Br  0.59603660  0.62484296  0.20664034    -0.01200
Br3784     Br  0.58413860  0.61698876  0.15391578    -0.01300
Br3785     Br  0.61423298  0.50562640  0.20343936    -0.01200
Br3786     Br  0.56812739  0.97441850  0.15815868    -0.01200
C3787       C  0.72779176  0.94050752  0.55816042    -0.02400
C3788       C  0.71529272  0.96397388  0.55993167     0.07300
C3789       C  0.68790262  0.95882306  0.54572247    -0.02500
C3790       C  0.68212889  0.93948291  0.52659588    -0.02500
C3791       C  0.70140855  0.92265716  0.52229770     0.07500
C3792       C  0.72302141  0.92186797  0.53874800    -0.02700
Br3793     Br  0.74531369  0.89453398  0.53552169    -0.01200
Br3794     Br  0.74288645  0.92699643  0.58371431    -0.01300
Br3795     Br  0.64983362  0.93916472  0.50542215    -0.01200
Br3796     Br  0.66123514  0.98199087  0.55008851    -0.01200
C3797       C  0.69541236  0.78282034  0.53543028    -0.02400
C3798       C  0.71839848  0.80344631  0.51893761     0.07300
C3799       C  0.75425640  0.82022171  0.52256911    -0.02500
C3800       C  0.76698473  0.81518589  0.54217989    -0.02500
C3801       C  0.74367018  0.78994571  0.55723332     0.07500
C3802       C  0.70837681  0.77931412  0.55534469    -0.02700
Br3803     Br  0.67965207  0.76843926  0.58086124    -0.01200
Br3804     Br  0.64629168  0.75712006  0.53105411    -0.01300
Br3805     Br  0.81672766  0.83794324  0.54565041    -0.01200
Br3806     Br  0.78618523  0.84576563  0.49927398    -0.01200
C3807       C  0.55662036  0.75279124  0.51854870    -0.02400
C3808       C  0.58277661  0.78723472  0.51967082     0.07300
C3809       C  0.58878905  0.80516768  0.53958720    -0.02500
C3810       C  0.56424189  0.79096280  0.55662856    -0.02500
C3811       C  0.53482876  0.75813234  0.55395317     0.07500
C3812       C  0.53620954  0.73713342  0.53685883    -0.02700
Br3813     Br  0.50864743  0.68755464  0.53709650    -0.01200
Br3814     Br  0.54618284  0.72816847  0.49122464    -0.01300
Br3815     Br  0.57475386  0.81267300  0.58474227    -0.01200
Br3816     Br  0.63109894  0.84768030  0.54404586    -0.01200
C3817       C  0.79018090  0.56948879  0.34579335    -0.02400
C3818       C  0.75486250  0.54962184  0.34096845     0.07300
C3819       C  0.73211928  0.55641654  0.35378919    -0.02500
C3820       C  0.74127099  0.56822969  0.37526065    -0.02500
C3821       C  0.77613217  0.58274561  0.38209818     0.07500
C3822       C  0.80093995  0.58443708  0.36656464    -0.02700
Br3823     Br  0.84968812  0.60485438  0.37283040    -0.01200
Br3824     Br  0.82328147  0.58227178  0.32244397    -0.01300
Br3825     Br  0.70382846  0.55811897  0.39550577    -0.01200
Br3826     Br  0.68598352  0.54378426  0.34424226    -0.01200
C3827       C  0.73444950  0.94045189  0.38665625    -0.02400
C3828       C  0.70516261  0.93667841  0.37520942     0.07300
C3829       C  0.67486819  0.92848850  0.38723614    -0.02500
C3830       C  0.67199225  0.91879271  0.40922773    -0.02500
C3831       C  0.70026747  0.91917750  0.41993965     0.07500
C3832       C  0.73221110  0.93293016  0.40895734    -0.02700
Br3833     Br  0.77421440  0.94816399  0.42544364    -0.01200
Br3834     Br  0.77962957  0.96204818  0.37303080    -0.01300
Br3835     Br  0.63041750  0.90938815  0.42469191    -0.01200
Br3836     Br  0.63986740  0.93734192  0.37521166    -0.01200
C3837       C  0.76248953  0.70201246  0.34434433    -0.02400
C3838       C  0.77933533  0.73760013  0.34003131     0.07300
C3839       C  0.80857136  0.75779625  0.35335927    -0.02500
C3840       C  0.81178649  0.74581524  0.37418912    -0.02500
C3841       C  0.78780922  0.71156079  0.38121812     0.07500
C3842       C  0.76384925  0.68939622  0.36519595    -0.02700
Br3843     Br  0.73127201  0.64150966  0.37040956    -0.01200
Br3844     Br  0.74684703  0.67082660  0.31996192    -0.01300
Br3845     Br  0.84968388  0.77766378  0.39225751    -0.01200
Br3846     Br  0.84469087  0.80171772  0.34296552    -0.01200
C3847       C  0.74443171  0.81987861  0.38452589    -0.02400
C3848       C  0.71880798  0.78848256  0.37516662     0.07300
C3849       C  0.69565756  0.76214518  0.38922168    -0.02500
C3850       C  0.69603341  0.76853369  0.41157232    -0.02500
C3851       C  0.71538114  0.80240185  0.41963678     0.07500
C3852       C  0.74169850  0.82753487  0.40643510    -0.02700
Br3853     Br  0.77675638  0.87042137  0.41864532    -0.01200
Br3854     Br  0.78680257  0.84939598  0.36899211    -0.01300
Br3855     Br  0.67385674  0.73035118  0.43164158    -0.01200
Br3856     Br  0.66659661  0.71583003  0.37833933    -0.01200
C3857       C  0.92273340  0.71802534  0.34936528    -0.02400
C3858       C  0.95403028  0.71818918  0.35350435     0.07300
C3859       C  0.95415986  0.69740707  0.37098286    -0.02500
C3860       C  0.93245843  0.69189057  0.38869362    -0.02500
C3861       C  0.90377567  0.69688627  0.38626977     0.07500
C3862       C  0.89693335  0.70598136  0.36564370    -0.02700
Br3863     Br  0.85176194  0.69926976  0.35911081    -0.01200
Br3864     Br  0.91172180  0.72661381  0.32062009    -0.01300
Br3865     Br  0.94624569  0.68311106  0.41674741    -0.01200
Br3866     Br  0.98742493  0.68132450  0.37291344    -0.01200
C3867       C  0.56515236  0.81992225  0.39037438    -0.02400
C3868       C  0.57657697  0.80513054  0.37414649     0.07300
C3869       C  0.60074506  0.79546376  0.38012815    -0.02500
C3870       C  0.60295421  0.78802803  0.40187029    -0.02500
C3871       C  0.59094943  0.80136699  0.41839292     0.07500
C3872       C  0.57179961  0.81747661  0.41242768    -0.02700
Br3873     Br  0.55044867  0.83137738  0.43466941    -0.01200
Br3874     Br  0.53780541  0.84074820  0.38218302    -0.01300
Br3875     Br  0.61770067  0.75544251  0.40768405    -0.01200
Br3876     Br  0.64385065  0.81705356  0.36462900    -0.01200
C3877       C  0.88237539  0.65333520  0.21012159    -0.02400
C3878       C  0.86622928  0.63411263  0.19102789     0.07300
C3879       C  0.84887571  0.59741445  0.19254754    -0.02500
C3880       C  0.85256195  0.58163667  0.21128676    -0.02500
C3881       C  0.87651962  0.60193507  0.22770594     0.07500
C3882       C  0.88600012  0.63687053  0.22862934    -0.02700
Br3883     Br  0.89658214  0.65962878  0.25644058    -0.01200
Br3884     Br  0.89832635  0.70175017  0.21237057    -0.01300
Br3885     Br  0.82970776  0.53182375  0.21187292    -0.01200
Br3886     Br  0.82027727  0.56678084  0.16941725    -0.01200
C3887       C  0.92291155  0.79108019  0.22455566    -0.02400
C3888       C  0.90030652  0.79629072  0.23837856     0.07300
C3889       C  0.86485789  0.77511153  0.23456957    -0.02500
C3890       C  0.85302348  0.76150134  0.21369880    -0.02500
C3891       C  0.87697893  0.76427946  0.19721681     0.07500
C3892       C  0.91244670  0.77902148  0.20320919    -0.02700
Br3893     Br  0.94867871  0.78626259  0.18266188    -0.01200
Br3894     Br  0.97014320  0.80656575  0.23299093    -0.01300
Br3895     Br  0.80391313  0.74092352  0.20893612    -0.01200
Br3896     Br  0.83402096  0.75674086  0.25913099    -0.01200
C3897       C  0.72779043  0.66084201  0.19980771    -0.02400
C3898       C  0.75093535  0.64789418  0.19640374     0.07300
C3899       C  0.75482844  0.62928111  0.21413796    -0.02500
C3900       C  0.73282914  0.61994324  0.23273505    -0.02500
C3901       C  0.70568184  0.62746465  0.23362683     0.07500
C3902       C  0.70882171  0.65403002  0.21938742    -0.02700
Br3903     Br  0.68442399  0.67902402  0.22518250    -0.01200
Br3904     Br  0.71744049  0.68452644  0.17723639    -0.01300
Br3905     Br  0.74602478  0.60684386  0.25932103    -0.01200
Br3906     Br  0.78976301  0.61592232  0.21411107    -0.01200
C3907       C  0.95503357  0.60460987  0.04293966    -0.02400
C3908       C  0.93510713  0.58477347  0.02479265     0.07300
C3909       C  0.92932859  0.55088877  0.02266644    -0.02500
C3910       C  0.93329777  0.53413768  0.04085150    -0.02500
C3911       C  0.94704421  0.55228137  0.06037162     0.07500
C3912       C  0.95835146  0.58779801  0.06119070    -0.02700
Br3913     Br  0.97385334  0.61257486  0.08841561    -0.01200
Br3914     Br  0.97328339  0.65410260  0.04486941    -0.01300
Br3915     Br  0.93983154  0.99091099  0.03598179    -0.01200
Br3916     Br  0.92580949  0.53102088  0.99426668    -0.01200
C3917       C  0.88738498  0.66569259  0.05099494    -0.02400
C3918       C  0.86372911  0.63364838  0.04194880     0.07300
C3919       C  0.83924692  0.60751714  0.05581991    -0.02500
C3920       C  0.83945757  0.61327307  0.07827274    -0.02500
C3921       C  0.86388043  0.64526903  0.08737132     0.07500
C3922       C  0.88942578  0.67042873  0.07366735    -0.02700
Br3923     Br  0.92983327  0.70919257  0.08548395    -0.01200
Br3924     Br  0.92045442  0.70133188  0.03223193    -0.01300
Br3925     Br  0.81008270  0.57483260  0.09700442    -0.01200
Br3926     Br  0.81010369  0.56111423  0.04499344    -0.01200
C3927       C  0.91286120  0.90491705  0.02350804    -0.02400
C3928       C  0.93448742  0.89602914  0.01132710     0.07300
C3929       C  0.96866853  0.91042757  0.01923269    -0.02500
C3930       C  0.97654282  0.92050140  0.04130334    -0.02500
C3931       C  0.95149870  0.92185336  0.05502607     0.07500
C3932       C  0.91874673  0.91225654  0.04587051    -0.02700
Br3933     Br  0.88015442  0.90577901  0.06382127    -0.01200
Br3934     Br  0.87633898  0.90913202  0.00974129    -0.01300
Br3935     Br  0.51726704  0.92655539  0.05343805    -0.01200
Br3936     Br  0.00556487  0.92399385  0.99851393    -0.01200
C3937       C  0.85158062  0.77723342  0.08151585    -0.02400
C3938       C  0.87723546  0.77309804  0.09272859     0.07300
C3939       C  0.90781192  0.78083647  0.08122600    -0.02500
C3940       C  0.90951038  0.78459507  0.05836992    -0.02500
C3941       C  0.88282756  0.78607405  0.04688578     0.07500
C3942       C  0.85568621  0.78580807  0.05919513    -0.02700
Br3943     Br  0.82690591  0.80238372  0.04641684    -0.01200
Br3944     Br  0.80945670  0.76972924  0.09549722    -0.01300
Br3945     Br  0.95069733  0.79237419  0.04304816    -0.01200
Br3946     Br  0.94928651  0.79239723  0.09724132    -0.01200
C3947       C  0.62619124  0.61256271  0.04606126    -0.02400
C3948       C  0.62608777  0.59356511  0.02746229     0.07300
C3949       C  0.59538397  0.56281483  0.02295355    -0.02500
C3950       C  0.57105013  0.54670445  0.03980282    -0.02500
C3951       C  0.57897853  0.56007420  0.06116681     0.07500
C3952       C  0.60597343  0.59454100  0.06393204    -0.02700
Br3953     Br  0.61854344  0.61740590  0.09196551    -0.01200
Br3954     Br  0.65737844  0.66191285  0.04866190    -0.01300
Br3955     Br  0.52658155  0.00494226  0.03229985    -0.01200
Br3956     Br  0.58262044  0.54877431  0.99322277    -0.01200
C3957       C  0.73050762  0.60160411  0.06274726    -0.02400
C3958       C  0.74438648  0.62612727  0.04564431     0.07300
C3959       C  0.77640100  0.65531618  0.04949234    -0.02500
C3960       C  0.78694518  0.66509875  0.07118132    -0.02500
C3961       C  0.76562169  0.64625110  0.08903754     0.07500
C3962       C  0.73918757  0.61216853  0.08452340    -0.02700
Br3963     Br  0.71412939  0.57947675  0.10730400    -0.01200
Br3964     Br  0.69829843  0.55396401  0.05587808    -0.01300
Br3965     Br  0.83356520  0.69860724  0.07570846    -0.01200
Br3966     Br  0.80955031  0.67471266  0.02608296    -0.01200
C3967       C  0.74687780  0.87342908  0.70666592    -0.02400
C3968       C  0.75270637  0.89515844  0.72493291     0.07300
C3969       C  0.77693309  0.93064712  0.72316172    -0.02500
C3970       C  0.79664055  0.94314804  0.70421857    -0.02500
C3971       C  0.79772625  0.91942107  0.68908122     0.07500
C3972       C  0.76951687  0.88560699  0.68873842    -0.02700
Br3973     Br  0.75755447  0.85849598  0.66252665    -0.01200
Br3974     Br  0.70719977  0.82766386  0.70514405    -0.01300
Br3975     Br  0.82592565  0.99275137  0.70127566    -0.01200
Br3976     Br  0.78712024  0.96246889  0.74720855    -0.01200
C3977       C  0.63579559  0.73744519  0.72493113    -0.02400
C3978       C  0.62703337  0.76378554  0.72461870     0.07300
C3979       C  0.61102860  0.76762151  0.70566935    -0.02500
C3980       C  0.60076233  0.74304977  0.68861740    -0.02500
C3981       C  0.60668228  0.71484036  0.69042419     0.07500
C3982       C  0.63051559  0.71719296  0.70654461    -0.02700
Br3983     Br  0.65463037  0.69124336  0.70501476    -0.01200
Br3984     Br  0.64934570  0.72385233  0.75143847    -0.01300
Br3985     Br  0.58700267  0.75284244  0.66108082    -0.01200
Br3986     Br  0.60303450  0.80596441  0.70240607    -0.01200
C3987       C  0.56906035  0.86933241  0.70505061    -0.02400
C3988       C  0.59103809  0.89581730  0.69037881     0.07300
C3989       C  0.62634942  0.90608852  0.69066731    -0.02500
C3990       C  0.64071315  0.89987342  0.70929074    -0.02500
C3991       C  0.61902617  0.88120284  0.72722693     0.07500
C3992       C  0.58271976  0.86340920  0.72397885    -0.02700
Br3993     Br  0.55007826  0.83038825  0.74465705    -0.01200
Br3994     Br  0.51949379  0.84354205  0.70100378    -0.01300
Br3995     Br  0.68982648  0.91595207  0.70859281    -0.01200
Br3996     Br  0.65302973  0.92116931  0.66415250    -0.01200
C3997       C  0.59799244  0.63159436  0.87938782    -0.02400
C3998       C  0.57505401  0.63457271  0.89436769     0.07300
C3999       C  0.54081123  0.60782815  0.89460012    -0.02500
C4000       C  0.52694046  0.58692371  0.87609869    -0.02500
C4001       C  0.54872813  0.58965617  0.85818688     0.07500
C4002       C  0.58487299  0.61153639  0.86051460    -0.02700
Br4003     Br  0.61737565  0.61821915  0.83737374    -0.01200
Br4004     Br  0.64758270  0.65670869  0.88325119    -0.01300
Br4005     Br  0.97502737  0.55959142  0.87968805    -0.01200
Br4006     Br  0.51629083  0.59439802  0.92189663    -0.01200
C4007       C  0.59157893  0.74554350  0.85486820    -0.02400
C4008       C  0.61869776  0.74913853  0.86878368     0.07300
C4009       C  0.64974993  0.75411704  0.85879721    -0.02500
C4010       C  0.65447804  0.75857598  0.83621590    -0.02500
C4011       C  0.62992187  0.76128238  0.82336673     0.07500
C4012       C  0.59708093  0.75119119  0.83232772    -0.02700
Br4013     Br  0.55787349  0.73841807  0.81347812    -0.01200
Br4014     Br  0.54442560  0.72480094  0.86547689    -0.01300
Br4015     Br  0.69123734  0.75442703  0.82213650    -0.01200
Br4016     Br  0.68321748  0.74757895  0.87486498    -0.01200
C4017       C  0.89579376  0.94890874  0.90318761    -0.02400
C4018       C  0.87645544  0.96519389  0.90756016     0.07300
C4019       C  0.88351576  0.99334095  0.89371919    -0.02500
C4020       C  0.89556020  0.99433880  0.87219845    -0.02500
C4021       C  0.90624023  0.97023472  0.86545239     0.07500
C4022       C  0.90704787  0.94800316  0.88189244    -0.02700
Br4023     Br  0.92192885  0.91467616  0.87685039    -0.01200
Br4024     Br  0.91478502  0.93683989  0.92745497    -0.01300
Br4025     Br  0.89648549  0.02914923  0.85302278    -0.01200
Br4026     Br  0.87699504  0.03051823  0.90427760    -0.01200
C4027       C  0.74961634  0.91943095  0.84025244    -0.02400
C4028       C  0.74802647  0.89134089  0.82805950     0.07300
C4029       C  0.75886269  0.86976216  0.83826245    -0.02500
C4030       C  0.76607645  0.87301986  0.86068993    -0.02500
C4031       C  0.76544311  0.89954489  0.87293956     0.07500
C4032       C  0.76038132  0.92444316  0.86200191    -0.02700
Br4033     Br  0.77475984  0.96900554  0.87538183    -0.01200
Br4034     Br  0.73928315  0.95345091  0.82798899    -0.01300
Br4035     Br  0.78209328  0.84419281  0.87401950    -0.01200
Br4036     Br  0.76755785  0.83775715  0.82182960    -0.01200
C4037       C  0.54374528  0.95661773  0.89681969    -0.02400
C4038       C  0.53671777  0.92227861  0.89758718     0.07300
C4039       C  0.51054315  0.89863623  0.88329668    -0.02500
C4040       C  0.50000744  0.91068028  0.86513088    -0.02500
C4041       C  0.51482068  0.94676655  0.86121512     0.07500
C4042       C  0.53587071  0.96956019  0.87806799    -0.02700
Br4043     Br  0.56614506  0.52820918  0.87834415    -0.01200
Br4044     Br  0.55525570  0.98304519  0.92335417    -0.01300
Br4045     Br  0.97152035  0.87835181  0.85221047    -0.01200
Br4046     Br  0.49117916  0.84938415  0.88732790    -0.01200
C4047       C  0.62894496  0.90726172  0.83701055    -0.02400
C4048       C  0.63580574  0.88035675  0.83273973     0.07300
C4049       C  0.64236234  0.86416695  0.85043795    -0.02500
C4050       C  0.63432951  0.86912800  0.87189634    -0.02500
C4051       C  0.62172382  0.89217736  0.87560691     0.07500
C4052       C  0.62601614  0.91555405  0.85853305    -0.02700
Br4053     Br  0.62842119  0.95940079  0.86442574    -0.01200
Br4054     Br  0.62001410  0.93071409  0.81373782    -0.01300
Br4055     Br  0.64594130  0.84858289  0.89558703    -0.01200
Br4056     Br  0.66571152  0.83835276  0.84572185    -0.01200
loop_ 
_geom_bond_atom_site_label_1 
_geom_bond_atom_site_label_2 
_geom_bond_distance 
_geom_bond_site_symmetry_2 
_ccdc_geom_bond_type 
C1            C2   1.558       .  S
C1            C7   1.526       .  S
C1            C5   1.514       .  S
C1          C996   1.557       .  S
C2            H9   1.080       .  S
C2            C3   1.387       .  D
C3            C4   1.573       .  S
C3           C81   1.562       .  S
C4            C8   1.588       .  S
C4            C6   1.567       .  S
C4           H10   1.107       .  S
C5           H11   1.088       .  S
C5            C6   1.348       .  D
C6         C1009   1.509       .  S
C7           H12   1.086       .  S
C7            C8   1.369       .  D
C8          C171   1.531       .  S
C13          C14   1.560       .  S
C13          C19   1.526       .  S
C13          C17   1.509       .  S
C13         C976   1.564       .  S
C14          H21   1.065       .  S
C14          C15   1.393       .  D
C15          C16   1.589       .  S
C15         C207   1.587       .  S
C16          C20   1.577       .  S
C16          C18   1.563       .  S
C16          H22   1.099       .  S
C17          H23   1.090       .  S
C17          C18   1.343       .  D
C18         C989   1.482       .  S
C19          H24   1.076       .  S
C19          C20   1.374       .  D
C20          C80   1.560       .  S
C25          C26   1.549       .  S
C25          C31   1.531       .  S
C25          C29   1.495       .  S
C25         C956   1.549       .  S
C26          H33   1.079       .  S
C26          C27   1.384       .  D
C27          C28   1.586       .  S
C27         C174   1.573       .  S
C28          C32   1.589       .  S
C28          C30   1.581       .  S
C28          H34   1.103       .  S
C29          H35   1.090       .  S
C29          C30   1.343       .  D
C30         C966   1.482       .  S
C31          H36   1.081       .  S
C31          C32   1.380       .  D
C32         C206   1.582       .  S
O37          C52   1.253       .  A
O37         Al45   1.878       .  S
C38          O48   1.262       .  A
C38          O39   1.253       .  A
C38         C969   1.490       .  S
O39         Al41   1.907       .  S
O40          C42   1.265       .  A
O40         Al41   1.917       .  S
Al41         O49   1.905       .  S
Al41         O51   1.904       .  S
Al41         O50   1.776       .  S
C42          O55   1.267       .  A
C42        C1006   1.490       .  S
O43          C53   1.250       .  A
O43         Al45   1.861       .  S
O44          C57   1.257       .  A
O44         Al54   1.886       .  S
Al45         O58   1.907       .  S
Al45         O55   1.918       .  S
Al45         O50   1.774       .  S
O46          C53   1.262       .  A
O46         Al54   1.929       .  S
O47          C56   1.269       .  A
O47         Al54   1.908       .  S
O48         Al54   1.907       .  S
O49          C56   1.267       .  A
O50         Al54   1.768       .  S
O51          C52   1.261       .  A
C52         C949   1.483       .  S
C53         C986   1.497       .  S
C56         C936   1.486       .  S
C57          O58   1.263       .  A
C57         C926   1.497       .  S
N59          H91   1.045       .  S
N59          C63   1.360       .  A
N59        C1078   1.361   1_545  A
N60          C67   1.379       .  A
N60          C68   1.374       .  A
N61          H92   1.044       .  S
N61          C65   1.368       .  A
N61        C1080   1.368   1_545  A
N62          C69   1.373       .  A
N62          C70   1.367       .  A
C63          C71   1.391       .  A
C63          C79   1.433       .  A
C64        N1073   1.368       .  A
C64          C80   1.437       .  A
C64          C72   1.379       .  A
C65          C73   1.395       .  A
C65          C82   1.452       .  A
C66        N1075   1.368       .  A
C66          C81   1.451       .  A
C66          C74   1.387       .  A
C67          C79   1.437       .  A
C67          C75   1.368   1_556  A
C68          C82   1.446       .  A
C68          C76   1.362   1_556  A
C69          C77   1.375       .  A
C69          C80   1.434       .  A
C70          C78   1.372       .  A
C70          C81   1.444       .  A
C71        C1086   1.376   1_545  A
C71          H83   1.081   1_556  S
C72        C1085   1.362       .  A
C72          H84   1.082       .  S
C73        C1088   1.380   1_545  A
C73          H85   1.077   1_556  S
C74        C1087   1.372       .  A
C74          H86   1.076       .  S
C75          C76   1.343       .  A
C75          H87   1.064       .  S
C76          H88   1.043       .  S
C77          C78   1.363       .  A
C77          H89   1.075       .  S
C78          H90   1.055       .  S
C79         C124   1.577       .  S
C82          C95   1.594       .  S
C93          C94   1.558       .  S
C93          C99   1.496       .  S
C93          C97   1.504       .  S
C93         C906   1.536       .  S
C94         H101   1.058   1_554  S
C94          C95   1.388   1_554  D
C95          C96   1.595   1_556  S
C96         C100   1.606   1_554  S
C96          C98   1.576       .  S
C96         H102   1.106   1_554  S
C97         H103   1.086       .  S
C97          C98   1.344       .  D
C98         C916   1.509       .  S
C99         H104   1.084       .  S
C99         C100   1.358   1_554  D
C100        C205   1.551       .  S
C105        C106   1.536   1_554  S
C105        C111   1.539   1_554  S
C105        C109   1.517       .  S
C105        C886   1.555       .  S
C106        H113   1.077       .  S
C106        C107   1.374       .  D
C107        C108   1.602   1_556  S
C107        C208   1.557       .  S
C108        C112   1.597   1_554  S
C108        C110   1.564       .  S
C108        H114   1.101       .  S
C109        H115   1.088       .  S
C109        C110   1.336       .  D
C110        C899   1.500       .  S
C111        H116   1.075       .  S
C111        C112   1.385       .  D
C112        C172   1.572       .  S
C117        C118   1.511   1_554  S
C117        C123   1.554   1_554  S
C117        C121   1.504       .  S
C117        C866   1.543       .  S
C118        H125   1.080       .  S
C118        C119   1.369       .  D
C119        C120   1.593       .  S
C119        C173   1.564       .  S
C120        C124   1.586       .  S
C120        C122   1.566   1_556  S
C120        H126   1.093       .  S
C121        H127   1.090       .  S
C121        C122   1.338       .  D
C122        C876   1.483       .  S
C123        H128   1.060       .  S
C123        C124   1.388       .  D
O129        C144   1.257       .  A
O129       Al137   1.904       .  S
C130        O140   1.267       .  A
C130        O131   1.258       .  A
C130        C919   1.505       .  S
O131       Al133   1.896       .  S
O132        C134   1.254       .  A
O132       Al133   1.862       .  S
Al133       O141   1.874       .  S
Al133       O143   1.888       .  S
Al133       O142   1.777       .  S
C134        O147   1.270       .  A
C134        C879   1.493       .  S
O135        C145   1.260       .  A
O135       Al137   1.902       .  S
O136        C149   1.267       .  A
O136       Al146   1.911       .  S
Al137       O150   1.910       .  S
Al137       O147   1.948       .  S
Al137       O142   1.767       .  S
O138        C145   1.261       .  A
O138       Al146   1.938       .  S
O139        C148   1.274       .  A
O139       Al146   1.965       .  S
O140       Al146   1.949       .  S
O141        C148   1.254       .  A
O142       Al146   1.778       .  S
O143        C144   1.258       .  A
C144        C836   1.496       .  S
C145        C896   1.508       .  S
C148        C856   1.518       .  S
C149        O150   1.267       .  A
C149        C849   1.506       .  S
N151        H183   1.044       .  S
N151        C156   1.365       .  A
N151       C2183   1.364       .  A
N152        C159   1.361       .  A
N152        C160   1.362       .  A
N153        H184   1.038       .  S
N153        C158   1.371       .  A
N153       C2185   1.379       .  A
N154        C161   1.369       .  A
N154        C162   1.362       .  A
C155       N2179   1.361   1_455  A
C155        C163   1.380       .  A
C155        C171   1.422       .  A
C156        C172   1.445       .  A
C156        C164   1.390       .  A
C157       N2181   1.381   1_455  A
C157        C165   1.382       .  A
C157        C174   1.458       .  A
C158        C173   1.463       .  A
C158        C166   1.391       .  A
C159        C171   1.419       .  A
C159        C167   1.372       .  A
C160        C174   1.430       .  A
C160        C168   1.381       .  A
C161        C169   1.383       .  A
C161        C172   1.437       .  A
C162        C170   1.386       .  A
C162        C173   1.437       .  A
C163       C2192   1.382       .  A
C163        H175   1.082       .  S
C164       C2191   1.384       .  A
C164        H176   1.081   1_556  S
C165       C2194   1.366   1_455  A
C165        H177   1.074       .  S
C166       C2193   1.364       .  A
C166        H178   1.080       .  S
C167        C168   1.369       .  A
C167        H179   1.072       .  S
C168        H180   1.070       .  S
C169        C170   1.384       .  A
C169        H181   1.079       .  S
C170        H182   1.078       .  S
N185        H217   1.036       .  S
N185        C190   1.376       .  A
N185        C189   1.375       .  A
N186        C193   1.359       .  A
N186        C194   1.364       .  A
N187        H218   1.044       .  S
N187        C192   1.372       .  A
N187        C191   1.375       .  A
N188        C195   1.375       .  A
N188        C196   1.372       .  A
C189        C197   1.387       .  A
C189        C205   1.459       .  A
C190        C206   1.457       .  A
C190        C198   1.384       .  A
C191        C199   1.380       .  A
C191        C208   1.444       .  A
C192        C207   1.459       .  A
C192        C200   1.393       .  A
C193        C205   1.423       .  A
C193        C201   1.377   1_556  A
C194        C208   1.421       .  A
C194        C202   1.380   1_556  A
C195        C203   1.379       .  A
C195        C206   1.450       .  A
C196        C204   1.386       .  A
C196        C207   1.454       .  A
C197        C198   1.363       .  A
C197        H209   1.080       .  S
C198        H210   1.081       .  S
C199        C200   1.381       .  A
C199        H211   1.083       .  S
C200        H212   1.081       .  S
C201        C202   1.372       .  A
C201        H213   1.077       .  S
C202        H214   1.076       .  S
C203        C204   1.365       .  A
C203        H215   1.072       .  S
C204        H216   1.072       .  S
C219        C220   1.505       .  S
C219        C225   1.562       .  S
C219       C2251   1.509       .  S
C219        C816   1.541       .  S
C220        H227   1.084       .  S
C220       C2249   1.361       .  D
C221        C222   1.597       .  S
C221       C2248   1.365       .  D
C221        C356   1.558       .  S
C222        C226   1.591       .  S
C222        C224   1.568       .  S
C222        H228   1.108       .  S
C223       C2247   1.512   1_455  S
C223        H229   1.089       .  S
C223        C224   1.345       .  D
C224        C826   1.501       .  S
C225        H230   1.059       .  S
C225       C2254   1.386       .  D
C226       C2253   1.389   1_455  D
C226        C423   1.579       .  S
C231        C232   1.535       .  S
C231        C237   1.553       .  S
C231        C235   1.512       .  S
C231        C796   1.560       .  S
C232        H239   1.083       .  S
C232        C233   1.376       .  D
C233        C234   1.579       .  S
C233        C391   1.541       .  S
C234        C238   1.587       .  S
C234        C236   1.549       .  S
C234        H240   1.102       .  S
C235        H241   1.090       .  S
C235        C236   1.334       .  D
C236        C806   1.474       .  S
C237        H242   1.070       .  S
C237        C238   1.389       .  D
C238        C357   1.573       .  S
C243        C244   1.533   1_545  S
C243        C249   1.554   1_545  S
C243       C1261   1.516   1_545  S
C243        C776   1.549       .  S
C244        H251   1.084   1_565  S
C244       C1259   1.373       .  D
C245        C246   1.577       .  S
C245       C1258   1.370       .  D
C245        C426   1.535       .  S
C246        C250   1.558       .  S
C246        C248   1.560       .  S
C246        H252   1.104       .  S
C247       C1257   1.519       .  S
C247        H253   1.088       .  S
C247        C248   1.337       .  D
C248        C786   1.490       .  S
C249        H254   1.076   1_565  S
C249       C1264   1.381       .  D
C250       C1263   1.383       .  D
C250        C390   1.530       .  S
O255        C270   1.251       .  A
O255       Al263   1.864       .  S
C256        O266   1.257       .  A
C256        O257   1.264       .  A
C256        C789   1.499       .  S
O257       Al259   1.937       .  S
O258        C260   1.255       .  A
O258       Al259   1.861       .  S
Al259       O267   1.858       .  S
Al259       O269   1.934       .  S
Al259       O268   1.787       .  S
C260        O273   1.270       .  A
C260        C829   1.488       .  S
O261        C271   1.252       .  A
O261       Al263   1.868       .  S
O262        C275   1.255       .  A
O262       Al272   1.863       .  S
Al263       O276   1.938       .  S
Al263       O273   1.952       .  S
Al263       O268   1.776       .  S
O264        C271   1.259       .  A
O264       Al272   1.919       .  S
O265        C274   1.267       .  A
O265       Al272   1.945       .  S
O266       Al272   1.884       .  S
O267        C274   1.254       .  A
O268       Al272   1.785       .  S
O269        C270   1.260       .  A
C270        C766   1.494       .  S
C271        C809   1.487       .  S
C274        C749   1.481       .  S
C275        O276   1.267       .  A
C275        C756   1.482       .  S
C277        C278   1.562       .  S
C277        C283   1.523       .  S
C277        C281   1.518       .  S
C277        C859   1.561       .  S
C278        H285   1.066       .  S
C278        C279   1.395       .  D
C279        C280   1.569       .  S
C279       C1439   1.562       .  S
C280        C284   1.575       .  S
C280        C282   1.555       .  S
C280        H286   1.099       .  S
C281        H287   1.090       .  S
C281        C282   1.339       .  D
C282        C739   1.486       .  S
C283        H288   1.084       .  S
C283        C284   1.366       .  D
C284        C358   1.533       .  S
C289        C290   1.544       .  S
C289        C295   1.506       .  S
C289        C293   1.531       .  S
C289        C846   1.546       .  S
C290        H297   1.064       .  S
C290        C291   1.382       .  D
C291        C292   1.590       .  S
C291        C392   1.569       .  S
C292        C296   1.601       .  S
C292        C294   1.572       .  S
C292        H298   1.101       .  S
C293        H299   1.086       .  S
C293        C294   1.353       .  D
C294        C726   1.537       .  S
C295        H300   1.084       .  S
C295        C296   1.359       .  D
C296       C2452   1.537       .  S
C301        C302   1.539       .  S
C301        C307   1.539       .  S
C301        C305   1.509       .  S
C301        C839   1.552       .  S
C302        H309   1.081       .  S
C302        C303   1.384       .  D
C303        C304   1.584       .  S
C303       C2383   1.567       .  S
C304        C308   1.583       .  S
C304        C306   1.569       .  S
C304        H310   1.099       .  S
C305        H311   1.090       .  S
C305        C306   1.337       .  D
C306        C716   1.488       .  S
C307        H312   1.076       .  S
C307        C308   1.383       .  D
C308       C1403   1.581       .  S
O313        C328   1.249       .  A
O313      Al2349   1.845       .  S
C314        O324   1.268       .  A
C314        O315   1.272       .  A
C314        C729   1.523       .  S
O315       Al317   1.948       .  S
O316        C318   1.247   1_565  A
O316      Al1331   1.858       .  S
Al317       O325   1.874       .  S
Al317      O1330   1.856       .  S
Al317      O1341   1.945       .  S
Al317      O1340   1.768       .  S
C318        O331   1.259       .  A
C318        C719   1.498       .  S
O319        C329   1.260       .  A
O319       Al321   1.876       .  S
O320        C333   1.265       .  A
O320      Al1344   1.904   1_545  S
Al321       O334   1.872       .  S
Al321      O2341   1.877   1_455  S
Al321      O2359   1.917   1_455  S
Al321      O2354   1.775   1_455  S
O322        C329   1.265       .  A
O322      Al1344   1.948   1_545  S
O323        C332   1.269       .  A
O323      Al2358   1.966       .  S
O324      Al2358   1.936       .  S
O325        C332   1.255       .  A
O326      Al1331   1.777       .  S
O326      Al2349   1.766   1_565  S
O326      Al3372   1.780       .  S
O327        C328   1.273       .  A
O327      Al1331   1.964   1_545  S
C328        C869   1.482       .  S
C329        C736   1.497       .  S
Al330      O1334   1.923       .  S
Al330      O1336   1.947       .  S
Al330      O2351   1.963   1_455  S
Al330      O2352   1.924   1_455  S
Al330      O3368   1.784   1_455  S
O331      Al2349   1.922       .  S
C332        C889   1.511       .  S
C333        O334   1.258       .  A
C333        C909   1.467       .  S
N335        H367   1.036       .  S
N335        C340   1.370       .  A
N335        C339   1.375       .  A
N336        C343   1.363       .  A
N336        C344   1.362       .  A
N337        H368   1.043       .  S
N337        C342   1.367       .  A
N337        C341   1.363       .  A
N338        C345   1.367       .  A
N338        C346   1.371       .  A
C339        C355   1.456   1_455  A
C339       C2375   1.384   1_455  A
C340        C356   1.448       .  A
C340        C348   1.384   1_455  A
C341        C349   1.382       .  A
C341        C358   1.428       .  A
C342        C357   1.443       .  A
C342        C350   1.391       .  A
C343        C355   1.439   1_455  A
C343        C351   1.385       .  A
C344        C358   1.425       .  A
C344        C352   1.380       .  A
C345        C353   1.369       .  A
C345        C356   1.433       .  A
C346        C354   1.380       .  A
C346        C357   1.435       .  A
C347       C2367   1.384       .  A
C347       C2376   1.363       .  A
C347        H359   1.076       .  S
C348       C2375   1.363       .  A
C348       H2388   1.081       .  S
C349        C350   1.377       .  A
C349        H361   1.083       .  S
C350        H362   1.081       .  S
C351        C352   1.361       .  A
C351        H363   1.071   1_455  S
C352        H364   1.072       .  S
C353        C354   1.370       .  A
C353        H365   1.070       .  S
C354        H366   1.077       .  S
C355       C2331   1.562       .  S
H360       C2376   1.081       .  S
N369        H401   1.045       .  S
N369        C374   1.364       .  A
N369        C373   1.362       .  A
N370        C377   1.373       .  A
N370        C378   1.367       .  A
N371        H402   1.044       .  S
N371        C376   1.367       .  A
N371        C375   1.364       .  A
N372        C379   1.358       .  A
N372        C380   1.359       .  A
C373        C389   1.433       .  A
C373       C1395   1.382       .  A
C374        C390   1.412       .  A
C374        C382   1.374       .  A
C375        C383   1.390       .  A
C375        C392   1.439       .  A
C376        C391   1.426       .  A
C376        C384   1.379       .  A
C377        C389   1.439       .  A
C377        C385   1.382       .  A
C378        C392   1.430       .  A
C378        C386   1.369       .  A
C379        C387   1.384       .  A
C379        C390   1.425       .  A
C380        C388   1.385       .  A
C380        C391   1.427       .  A
C381       C1387   1.390       .  A
C381       C1396   1.371       .  A
C381        H393   1.072   1_565  S
C382       C1395   1.368       .  A
C382       H1408   1.083       .  S
C383        C384   1.376       .  A
C383        H395   1.082       .  S
C384        H396   1.083       .  S
C385        C386   1.358       .  A
C385        H397   1.069       .  S
C386        H398   1.070       .  S
C387        C388   1.376       .  A
C387        H399   1.076       .  S
C388        H400   1.075       .  S
C389       C1322   1.574       .  S
H394       C1396   1.083       .  S
N403        H435   1.044       .  S
N403        C408   1.363       .  A
N403        C407   1.369       .  A
N404        C411   1.367       .  A
N404        C412   1.366       .  A
N405        H436   1.043       .  S
N405        C410   1.367       .  A
N405        C409   1.360       .  A
N406        C413   1.360       .  A
N406        C414   1.364       .  A
C407        C415   1.392   1_455  A
C407        C423   1.445       .  A
C408        C424   1.430   1_455  A
C408       C2444   1.380   1_455  A
C409        C417   1.382       .  A
C409        C426   1.425       .  A
C410        C425   1.439       .  A
C410       C1432   1.390       .  A
C411        C423   1.430       .  A
C411        C419   1.371       .  A
C412        C426   1.423       .  A
C412        C420   1.374       .  A
C413        C421   1.368       .  A
C413        C424   1.417   1_455  A
C414        C422   1.383       .  A
C414        C425   1.430       .  A
C415       C2444   1.381       .  A
C415       H2455   1.079       .  S
C416       C2436   1.381       .  A
C416       C2443   1.382       .  A
C416        H428   1.083       .  S
C417       C1432   1.378       .  A
C417       H1443   1.083       .  S
C418       C1424   1.391       .  A
C418       C1431   1.377       .  A
C418        H430   1.081   1_565  S
C419        C420   1.349       .  A
C419        H431   1.052       .  S
C420        H432   1.068       .  S
C421        C422   1.371       .  A
C421        H433   1.074       .  S
C422        H434   1.073       .  S
C424       C2324   1.535       .  S
C425       C1293   1.562       .  S
H427       C2443   1.079       .  S
H429       C1431   1.083       .  S
C437        C438   1.553       .  S
C437        C443   1.517       .  S
C437        C441   1.499       .  S
C437        C929   1.540       .  S
C438        H445   1.078       .  S
C438        C439   1.387       .  D
C439        C440   1.589       .  S
C439        C576   1.581       .  S
C440        C444   1.587       .  S
C440        C442   1.591       .  S
C440        H446   1.104       .  S
C441        H447   1.090       .  S
C441        C442   1.342       .  D
C442        C706   1.499       .  S
C443        H448   1.079       .  S
C443        C444   1.369       .  D
C444       C1656   1.563       .  S
C449        C450   1.554       .  S
C449        C455   1.524       .  S
C449        C453   1.499       .  S
C449        C939   1.543       .  S
C450        H457   1.079       .  S
C450        C451   1.388       .  D
C451        C452   1.581       .  S
C451       C2669   1.576   1_455  S
C452        C456   1.587       .  S
C452        C454   1.596       .  S
C452        H458   1.104       .  S
C453        H459   1.091       .  S
C453        C454   1.337       .  D
C454        C696   1.508       .  S
C455        H460   1.083       .  S
C455        C456   1.370       .  D
C456        C610   1.561       .  S
C461        C462   1.561       .  S
C461        C467   1.511       .  S
C461        C465   1.501       .  S
C461        C946   1.535       .  S
C462        H469   1.081       .  S
C462        C463   1.392       .  D
C463        C464   1.581       .  S
C463       C1623   1.585       .  S
C464        C468   1.602       .  S
C464        C466   1.587       .  S
C464        H470   1.108       .  S
C465        H471   1.089       .  S
C465        C466   1.341       .  D
C466        C686   1.506       .  S
C467        H472   1.084       .  S
C467        C468   1.360       .  D
C468       C2601   1.555   1_455  S
O473       C1502   1.258       .  A
O473       Al481   1.901   1_565  S
C474        O475   1.265       .  A
C474       O1498   1.256       .  A
C474        C709   1.503       .  S
O475       Al477   1.939       .  S
O476       C2506   1.261       .  A
O476       Al477   1.913       .  S
Al477       O485   1.921       .  S
Al477       O487   1.937       .  S
Al477      O1500   1.775       .  S
C478       O2504   1.259   1_455  A
C478       O1505   1.261       .  A
C478        C689   1.511       .  S
O479        C489   1.259       .  A
O479       Al481   1.899       .  S
O480       C2521   1.265       .  A
O480       Al490   1.925       .  S
Al481       O494   1.903       .  S
Al481       O491   1.918   1_545  S
Al481      O2514   1.773   1_445  S
O482       C2517   1.266       .  A
O482       Al490   1.938       .  S
O483       C1506   1.270       .  A
O483       Al490   1.950   1_565  S
O484       C1488   1.261   1_545  A
O484       Al490   1.913       .  S
O485        C492   1.264       .  A
O486       Al490   1.781   1_565  S
O486      Al1491   1.776       .  S
O486      Al2509   1.766   1_565  S
O487       C2516   1.270       .  A
C488       O1487   1.259       .  A
C488       O2515   1.269   1_455  A
C488        C999   1.507       .  S
C489       O2510   1.264       .  A
C489        C699   1.509       .  S
O491       C1492   1.260       .  A
C492       O1497   1.266       .  A
C492        C979   1.520       .  S
C493        O494   1.264       .  A
C493       O2508   1.265   1_455  A
C493        C959   1.498       .  S
C495        C496   1.525       .  S
C495        C501   1.550       .  S
C495        C499   1.493       .  S
C495       C1760   1.542   1_545  S
C496       H1517   1.078   1_545  S
C496        C497   1.374       .  D
C497        C498   1.583       .  S
C497        C608   1.569       .  S
C498        C502   1.596       .  S
C498        C500   1.600       .  S
C498        H504   1.104       .  S
C499        H505   1.091       .  S
C499        C500   1.337       .  D
C500        C676   1.505       .  S
C501       H1520   1.077   1_545  S
C501        C502   1.383       .  D
C502        C643   1.586       .  S
H503       C1510   1.077       .  S
H506       C1515   1.078       .  S
C507        C508   1.533       .  S
C507        C513   1.552       .  S
C507        C511   1.500       .  S
C507       C2797   1.547       .  S
C508       H2543   1.080       .  S
C508        C509   1.376       .  D
C509        C510   1.576       .  S
C509        C644   1.563       .  S
C510        C514   1.580       .  S
C510        C512   1.592       .  S
C510        H516   1.104       .  S
C511        H517   1.091       .  S
C511        C512   1.339       .  D
C512        C666   1.502       .  S
C513       H2546   1.077       .  S
C513        C514   1.382       .  D
C514        C574   1.568       .  S
H515       C2536   1.078   1_455  S
H518       C2541   1.074   1_455  S
C519        C520   1.504       .  S
C519        C525   1.570       .  S
C519        C523   1.503       .  S
C519        C759   1.543       .  S
C520        H527   1.082       .  S
C520        C521   1.363       .  D
C521        C522   1.601       .  S
C521        C575   1.553       .  S
C522        C526   1.575       .  S
C522        C524   1.593       .  S
C522        H528   1.107       .  S
C523        H529   1.089       .  S
C523        C524   1.344       .  D
C524        C656   1.522       .  S
C525        H530   1.078       .  S
C525        C526   1.388       .  D
C526        C607   1.578       .  S
O531        C546   1.253       .  A
O531       Al539   1.846       .  S
C532        O542   1.250       .  A
C532        O533   1.269       .  A
C532        C659   1.484       .  S
O533       Al535   1.942       .  S
O534        C536   1.249       .  A
O534       Al535   1.849       .  S
Al535       O543   1.869       .  S
Al535       O545   1.926       .  S
Al535       O544   1.779       .  S
C536        O549   1.266       .  A
C536        C669   1.505       .  S
O537        C547   1.254       .  A
O537       Al539   1.861       .  S
O538        C551   1.253       .  A
O538       Al548   1.864       .  S
Al539       O552   1.961       .  S
Al539       O549   1.959       .  S
Al539       O544   1.785       .  S
O540        C547   1.268       .  A
O540       Al548   1.952       .  S
O541        C550   1.267       .  A
O541       Al548   1.960       .  S
O542       Al548   1.862       .  S
O543        C550   1.250       .  A
O544       Al548   1.788       .  S
O545        C546   1.266       .  A
C546        C819   1.463       .  S
C547        C679   1.498       .  S
C550        C799   1.512       .  S
C551        O552   1.270       .  A
C551        C779   1.493       .  S
N553        H585   1.052       .  S
N553        C558   1.374       .  A
N553        C557   1.370       .  A
N554        C561   1.368       .  A
N554        C562   1.372       .  A
N555        H586   1.053       .  S
N555        C560   1.369       .  A
N555        C559   1.376       .  A
N556        C563   1.370       .  A
N556        C564   1.366       .  A
C557        C565   1.389       .  A
C557        C573   1.460       .  A
C558        C574   1.456       .  A
C558        C566   1.384       .  A
C559        C567   1.386       .  A
C559        C576   1.461       .  A
C560        C575   1.457       .  A
C560        C568   1.385       .  A
C561        C573   1.440       .  A
C561        C569   1.375       .  A
C562        C576   1.442       .  A
C562        C570   1.376       .  A
C563        C571   1.378       .  A
C563        C574   1.437       .  A
C564        C572   1.375       .  A
C564        C575   1.434       .  A
C565        C566   1.371       .  A
C565       H2605   1.079       .  S
C566        H578   1.078       .  S
C567        C568   1.369       .  A
C567        H579   1.073       .  S
C568        H580   1.081       .  S
C569        C570   1.366       .  A
C569        H581   1.068       .  S
C570        H582   1.073       .  S
C571        C572   1.361       .  A
C571        H583   1.071       .  S
C572        H584   1.072       .  S
C573       C2496   1.561       .  S
H577       C2593   1.080       .  S
N587        H619   1.042       .  S
N587        C592   1.375       .  A
N587        C591   1.372       .  A
N588        C595   1.374       .  A
N588        C596   1.371       .  A
N589        H620   1.039       .  S
N589        C594   1.371       .  A
N589        C593   1.370       .  A
N590        C597   1.371       .  A
N590        C598   1.371       .  A
C591        C599   1.367       .  A
C591        C607   1.439       .  A
C592        C608   1.439       .  A
C592        C600   1.376       .  A
C593        C601   1.383       .  A
C593        C610   1.442       .  A
C594        C609   1.439       .  A
C594        C602   1.378       .  A
C595        C607   1.450       .  A
C595        C603   1.383       .  A
C596        C610   1.457       .  A
C596        C604   1.386       .  A
C597        C605   1.380       .  A
C597        C608   1.446       .  A
C598        C606   1.383   1_545  A
C598        C609   1.451       .  A
C599        C600   1.355       .  A
C599        H611   1.057       .  S
C600        H612   1.067       .  S
C601        C602   1.356       .  A
C601        H613   1.067       .  S
C602        H614   1.072       .  S
C603        C604   1.368       .  A
C603        H615   1.074       .  S
C604        H616   1.081       .  S
C605        C606   1.361   1_545  A
C605        H617   1.082       .  S
C606       H1632   1.076       .  S
C609       C1477   1.564   1_545  S
H618       C1620   1.074       .  S
N621        H653   1.042       .  S
N621        C626   1.370       .  A
N621        C625   1.374       .  A
N622        C629   1.376       .  A
N622        C630   1.372       .  A
N623        H654   1.040       .  S
N623        C628   1.374       .  A
N623        C627   1.371       .  A
N624        C631   1.376       .  A
N624        C632   1.379       .  A
C625        C633   1.380       .  A
C625        C641   1.444       .  A
C626        C642   1.437       .  A
C626        C634   1.376       .  A
C627        C635   1.384       .  A
C627        C644   1.447       .  A
C628        C643   1.441       .  A
C628        C636   1.378       .  A
C629        C641   1.456       .  A
C629        C637   1.384       .  A
C630        C644   1.455       .  A
C630        C638   1.384       .  A
C631        C639   1.383   1_545  A
C631        C642   1.459       .  A
C632        C640   1.384       .  A
C632        C643   1.464       .  A
C633        C634   1.363       .  A
C633        H645   1.071       .  S
C634        H646   1.067       .  S
C635        C636   1.358       .  A
C635        H647   1.067       .  S
C636        H648   1.073       .  S
C637        C638   1.365       .  A
C637       H2677   1.073       .  S
C638        H650   1.081       .  S
C639        C640   1.366   1_565  A
C639       H1665   1.081       .  S
C640        H652   1.075   1_545  S
C641       C2479   1.582       .  S
C642       C1458   1.568   1_545  S
H649       C2665   1.072       .  S
H651       C1653   1.083       .  S
C655        C656   1.402       .  A
C655        C660   1.412       .  A
C655       Br662   1.926       .  S
C656        C657   1.431       .  A
C657        C658   1.406       .  A
C657       Br664   1.930       .  S
C658        C659   1.399       .  A
C658       Br663   1.930       .  S
C659        C660   1.417       .  A
C660       Br661   1.897       .  S
C665        C666   1.422       .  A
C665        C670   1.411       .  A
C665       Br672   1.936       .  S
C666        C667   1.427       .  A
C667        C668   1.418       .  A
C667       Br674   1.931       .  S
C668        C669   1.412       .  A
C668       Br673   1.929       .  S
C669        C670   1.415       .  A
C670       Br671   1.938       .  S
C675        C676   1.425       .  A
C675        C680   1.411       .  A
C675       Br682   1.931       .  S
C676        C677   1.431       .  A
C677        C678   1.418       .  A
C677       Br684   1.930       .  S
C678        C679   1.413       .  A
C678       Br683   1.933       .  S
C679        C680   1.408       .  A
C680       Br681   1.937       .  S
C685        C686   1.422       .  A
C685        C690   1.419       .  A
C685       Br692   1.929       .  S
C686        C687   1.380       .  A
C687        C688   1.397   1_455  A
C687      Br2722   1.906   1_455  S
C688        C689   1.416   1_655  A
C688      Br2721   1.903       .  S
C689        C690   1.423       .  A
C690       Br691   1.931       .  S
Br693      C2716   1.907       .  S
Br694      C2715   1.908       .  S
C695        C696   1.429       .  A
C695        C700   1.418       .  A
C695       Br702   1.938   1_455  S
C696        C697   1.425       .  A
C697        C698   1.415       .  A
C697       Br704   1.927       .  S
C698        C699   1.408       .  A
C698       Br703   1.931       .  S
C699        C700   1.410       .  A
C700       Br701   1.937   1_455  S
C705        C706   1.423       .  A
C705        C710   1.412       .  A
C705      Br1726   1.931       .  S
C706        C707   1.428       .  A
C707        C708   1.417       .  A
C707       Br714   1.934       .  S
C708        C709   1.405       .  A
C708       Br713   1.934       .  S
C709        C710   1.404       .  A
C710      Br1725   1.929       .  S
Br711      C1724   1.908   1_545  S
Br712      C1719   1.905   1_545  S
C715        C716   1.420       .  A
C715        C720   1.409       .  A
C715       Br722   1.936   1_545  S
C716        C717   1.422       .  A
C717        C718   1.409       .  A
C717       Br724   1.938       .  S
C718        C719   1.414       .  A
C718      Br2751   1.938       .  S
C719        C720   1.422       .  A
C720      Br1735   1.943   1_545  S
Br721      C1734   1.944       .  S
Br723      C2746   1.937   1_455  S
C725        C726   1.428       .  A
C725        C730   1.419       .  A
C725       Br732   1.934       .  S
C726        C727   1.412       .  A
C727        C728   1.420       .  A
C727       Br734   1.931       .  S
C728        C729   1.422       .  A
C728       Br733   1.900       .  S
C729        C730   1.410       .  A
C730       Br731   1.927       .  S
C735        C736   1.413       .  A
C735        C740   1.406       .  A
C735       Br742   1.934       .  S
C736        C737   1.419       .  A
C737        C738   1.412       .  A
C737      Br1758   1.933   1_545  S
C738        C739   1.418       .  A
C738       Br743   1.937   1_545  S
C739        C740   1.414       .  A
C740       Br741   1.932       .  S
Br744      C1751   1.930       .  S
C745        C746   1.408       .  A
C745        C750   1.410       .  A
C745       Br752   1.925       .  S
C746       C1509   1.546       .  S
C746        C747   1.425       .  A
C747        C748   1.402       .  A
C747       Br754   1.932       .  S
C748        C749   1.409       .  A
C748       Br753   1.939       .  S
C749        C750   1.415       .  A
C750       Br751   1.919       .  S
C755        C756   1.414       .  A
C755        C760   1.409       .  A
C755       Br762   1.913       .  S
C756        C757   1.409       .  A
C757        C758   1.403       .  A
C757       Br764   1.937       .  S
C758        C759   1.427       .  A
C758       Br763   1.937       .  S
C759        C760   1.406       .  A
C760       Br761   1.928       .  S
C765        C766   1.415       .  A
C765        C770   1.407       .  A
C765       Br772   1.944       .  S
C766        C767   1.418       .  A
C767        C768   1.411       .  A
C767       Br774   1.922       .  S
C768        C769   1.411       .  A
C768       Br773   1.931       .  S
C769       C2535   1.551       .  S
C769        C770   1.431       .  A
C770       Br771   1.939       .  S
C775        C776   1.411       .  A
C775        C780   1.416       .  A
C775       Br782   1.927       .  S
C776        C777   1.428       .  A
C777        C778   1.408       .  A
C777       Br784   1.934       .  S
C778        C779   1.412       .  A
C778       Br783   1.939       .  S
C779        C780   1.416       .  A
C780       Br781   1.922       .  S
C785        C786   1.418       .  A
C785        C790   1.408       .  A
C785       Br792   1.937       .  S
C786        C787   1.418       .  A
C787        C788   1.414       .  A
C787       Br794   1.938       .  S
C788        C789   1.418       .  A
C788       Br793   1.929       .  S
C789        C790   1.411       .  A
C790       Br791   1.934       .  S
C795        C796   1.411       .  A
C795        C800   1.416       .  A
C795       Br802   1.925       .  S
C796        C797   1.432       .  A
C797        C798   1.419       .  A
C797       Br804   1.931       .  S
C798        C799   1.421       .  A
C798       Br803   1.940       .  S
C799        C800   1.419       .  A
C800       Br801   1.918       .  S
C805        C806   1.417       .  A
C805        C810   1.406       .  A
C805       Br812   1.937       .  S
C806        C807   1.414       .  A
C807        C808   1.405       .  A
C807       Br814   1.937       .  S
C808        C809   1.410       .  A
C808       Br813   1.937       .  S
C809        C810   1.412       .  A
C810       Br811   1.927       .  S
C815        C816   1.415       .  A
C815        C820   1.408       .  A
C815       Br822   1.931       .  S
C816        C817   1.434       .  A
C817        C818   1.397       .  A
C817       Br824   1.943       .  S
C818        C819   1.401       .  A
C818       Br823   1.941       .  S
C819        C820   1.407       .  A
C820       Br821   1.917       .  S
C825        C826   1.419       .  A
C825        C830   1.411       .  A
C825       Br832   1.931       .  S
C826        C827   1.393       .  A
C827        C828   1.395       .  A
C827       Br834   1.918       .  S
C828        C829   1.407       .  A
C828       Br833   1.899       .  S
C829        C830   1.413       .  A
C830       Br831   1.928       .  S
C835        C836   1.424       .  A
C835        C840   1.417       .  A
C835       Br842   1.918       .  S
C836        C837   1.413       .  A
C837        C838   1.401       .  A
C837       Br844   1.942       .  S
C838        C839   1.422       .  A
C838       Br843   1.929       .  S
C839        C840   1.406       .  A
C840       Br841   1.927       .  S
C845        C846   1.416       .  A
C845        C850   1.405       .  A
C845       Br852   1.932       .  S
C846        C847   1.407       .  A
C847        C848   1.415       .  A
C847       Br854   1.932       .  S
C848        C849   1.427       .  A
C848       Br853   1.921       .  S
C849        C850   1.424       .  A
C850       Br851   1.939       .  S
C855        C856   1.419       .  A
C855        C860   1.414       .  A
C855       Br862   1.942       .  S
C856        C857   1.435       .  A
C857        C858   1.418       .  A
C857       Br864   1.934       .  S
C858        C859   1.406       .  A
C858       Br863   1.928       .  S
C859        C860   1.433       .  A
C860       Br861   1.936       .  S
C865        C866   1.432       .  A
C865        C870   1.402       .  A
C865       Br872   1.943       .  S
C866        C867   1.409       .  A
C867        C868   1.409       .  A
C867       Br874   1.933   1_554  S
C868        C869   1.410       .  A
C868      Br1887   1.901   1_545  S
C869        C870   1.410       .  A
C870       Br871   1.941       .  S
Br873      C1882   1.911       .  S
C875        C876   1.405       .  A
C875        C880   1.408       .  A
C875       Br882   1.927       .  S
C876        C877   1.419       .  A
C877        C878   1.408       .  A
C877       Br884   1.938       .  S
C878        C879   1.418       .  A
C878       Br883   1.939       .  S
C879        C880   1.416       .  A
C880       Br881   1.921       .  S
C885        C886   1.417       .  A
C885        C890   1.409       .  A
C885       Br892   1.926       .  S
C886        C887   1.421       .  A
C887        C888   1.423       .  A
C887       Br894   1.925   1_554  S
C888        C889   1.422       .  A
C888      Br2921   1.931       .  S
C889        C890   1.419       .  A
C890       Br891   1.934       .  S
Br893      C2916   1.930   1_455  S
C895        C896   1.421       .  A
C895        C900   1.418       .  A
C895       Br902   1.932       .  S
C896        C897   1.411       .  A
C897        C898   1.414       .  A
C897       Br904   1.930       .  S
C898        C899   1.415       .  A
C898       Br903   1.929       .  S
C899        C900   1.421       .  A
C900       Br901   1.933       .  S
C905        C906   1.421       .  A
C905        C910   1.392       .  A
C905       Br912   1.937       .  S
C906        C907   1.409       .  A
C907        C908   1.409       .  A
C907       Br914   1.928   1_554  S
C908        C909   1.412       .  A
C908      Br1927   1.916       .  S
C909        C910   1.408       .  A
C910       Br911   1.940       .  S
Br913      C1922   1.925       .  S
C915        C916   1.414       .  A
C915        C920   1.405       .  A
C915       Br922   1.933       .  S
C916        C917   1.390       .  A
C917        C918   1.410       .  A
C917       Br924   1.931       .  S
C918        C919   1.424       .  A
C918       Br923   1.886       .  S
C919        C920   1.419       .  A
C920       Br921   1.931       .  S
C925        C926   1.430       .  A
C925        C930   1.409       .  A
C925       Br932   1.924       .  S
C926        C927   1.422       .  A
C927        C928   1.404       .  A
C927       Br934   1.938       .  S
C928        C929   1.418       .  A
C928       Br933   1.932       .  S
C929        C930   1.396       .  A
C930       Br931   1.927       .  S
C935        C936   1.412       .  A
C935        C940   1.395       .  A
C935       Br942   1.941       .  S
C936        C937   1.421       .  A
C937        C938   1.417       .  A
C937       Br944   1.926       .  S
C938        C939   1.408       .  A
C938       Br943   1.924       .  S
C939        C940   1.421       .  A
C940       Br941   1.934       .  S
C945        C946   1.422       .  A
C945        C950   1.398       .  A
C945       Br952   1.941       .  S
C946        C947   1.403       .  A
C947        C948   1.407       .  A
C947       Br954   1.928       .  S
C948        C949   1.423       .  A
C948       Br953   1.927       .  S
C949        C950   1.413       .  A
C950       Br951   1.939       .  S
C955        C956   1.418       .  A
C955        C960   1.402       .  A
C955       Br962   1.929       .  S
C956        C957   1.407       .  A
C957        C958   1.416       .  A
C957       Br964   1.928       .  S
C958        C959   1.421       .  A
C958      Br2991   1.914   1_455  S
C959        C960   1.417       .  A
C960       Br961   1.937       .  S
Br963      C2986   1.915       .  S
C965        C966   1.424       .  A
C965        C970   1.410       .  A
C965       Br972   1.942       .  S
C966        C967   1.419       .  A
C967        C968   1.405       .  A
C967       Br974   1.929       .  S
C968        C969   1.404       .  A
C968       Br973   1.929       .  S
C969        C970   1.419       .  A
C970       Br971   1.937       .  S
C975        C976   1.409       .  A
C975        C980   1.422       .  A
C975       Br982   1.928       .  S
C976        C977   1.423       .  A
C977        C978   1.411       .  A
C977       Br984   1.929       .  S
C978        C979   1.422       .  A
C978       Br983   1.938       .  S
C979        C980   1.429       .  A
C980       Br981   1.923       .  S
C985        C986   1.420       .  A
C985        C990   1.407       .  A
C985       Br992   1.939       .  S
C986        C987   1.418       .  A
C987        C988   1.411       .  A
C987       Br994   1.930       .  S
C988        C989   1.414       .  A
C988       Br993   1.935       .  S
C989        C990   1.416       .  A
C990       Br991   1.940       .  S
C995        C996   1.409       .  A
C995       C1000   1.421       .  A
C995      Br1002   1.928       .  S
C996        C997   1.420       .  A
C997        C998   1.407       .  A
C997      Br1004   1.933   1_455  S
C998        C999   1.415       .  A
C998      Br3031   1.935       .  S
C999       C1000   1.427       .  A
C1000     Br2015   1.929       .  S
Br1001     C2014   1.931   1_545  S
Br1003     C3026   1.937       .  S
C1005      C1006   1.407       .  A
C1005      C1010   1.399       .  A
C1005     Br1012   1.928       .  S
C1006      C1007   1.421       .  A
C1007      C1008   1.413       .  A
C1007     Br1014   1.899       .  S
C1008      C1009   1.400       .  A
C1008     Br1013   1.928       .  S
C1009      C1010   1.418       .  A
C1010     Br1011   1.931       .  S
C1015      C1016   1.574       .  S
C1015      C1021   1.527       .  S
C1015      C1019   1.520       .  S
C1015      C2010   1.574       .  S
C1016      H1023   1.077       .  S
C1016      C1017   1.386       .  D
C1017      C1018   1.562       .  S
C1017      C1095   1.548       .  S
C1018      C1022   1.590       .  S
C1018      C1020   1.563       .  S
C1018      H1024   1.105       .  S
C1019      H1025   1.088       .  S
C1019      C1020   1.349       .  D
C1020      C2023   1.519       .  S
C1021      H1026   1.085       .  S
C1021      C1022   1.372       .  D
C1022      C1185   1.532       .  S
C1027      C1028   1.547       .  S
C1027      C1033   1.530       .  S
C1027      C1031   1.519       .  S
C1027      C1990   1.548       .  S
C1028      H1035   1.074       .  S
C1028      C1029   1.387       .  D
C1029      C1030   1.591       .  S
C1029      C1221   1.571       .  S
C1030      C1034   1.574       .  S
C1030      C1032   1.555       .  S
C1030      H1036   1.099       .  S
C1031      H1037   1.087       .  S
C1031      C1032   1.340       .  D
C1032      C2003   1.484       .  S
C1033      H1038   1.080       .  S
C1033      C1034   1.370       .  D
C1034      C1094   1.537       .  S
C1039      C1040   1.556       .  S
C1039      C1045   1.514       .  S
C1039      C1043   1.492       .  S
C1039      C1970   1.539       .  S
C1040      H1047   1.077       .  S
C1040      C1041   1.388       .  D
C1041      C1042   1.579       .  S
C1041      C1188   1.570       .  S
C1042      C1046   1.583       .  S
C1042      C1044   1.583       .  S
C1042      H1048   1.104       .  S
C1043      H1049   1.091       .  S
C1043      C1044   1.341       .  D
C1044      C1980   1.484       .  S
C1045      H1050   1.078       .  S
C1045      C1046   1.369       .  D
C1046      C1220   1.560       .  S
O1051      C1066   1.252       .  A
O1051     Al1059   1.880       .  S
C1052      O1062   1.261       .  A
C1052      O1053   1.255       .  A
C1052      C1983   1.487       .  S
O1053     Al1055   1.909       .  S
O1054      C1056   1.262       .  A
O1054     Al1055   1.908       .  S
Al1055     O1063   1.903       .  S
Al1055     O1065   1.918       .  S
Al1055     O1064   1.779       .  S
C1056      O1069   1.266       .  A
C1056      C2020   1.486       .  S
O1057      C1067   1.253       .  A
O1057     Al1059   1.865       .  S
O1058      C1071   1.257       .  A
O1058     Al1068   1.887       .  S
Al1059     O1072   1.902       .  S
Al1059     O1069   1.919       .  S
Al1059     O1064   1.774       .  S
O1060      C1067   1.263       .  A
O1060     Al1068   1.933       .  S
O1061      C1070   1.267       .  A
O1061     Al1068   1.915       .  S
O1062     Al1068   1.899       .  S
O1063      C1070   1.265       .  A
O1064     Al1068   1.770       .  S
O1065      C1066   1.261       .  A
C1066      C1963   1.505       .  S
C1067      C2000   1.494       .  S
C1070      C1950   1.507       .  S
C1071      O1072   1.261       .  A
C1071      C1940   1.496       .  S
N1073      H1105   1.038       .  S
N1073      C1077   1.369       .  A
N1074      C1081   1.376       .  A
N1074      C1082   1.373       .  A
N1075      H1106   1.036       .  S
N1075      C1079   1.371       .  A
N1076      C1083   1.366       .  A
N1076      C1084   1.360       .  A
C1077      C1085   1.385       .  A
C1077      C1093   1.452       .  A
C1078      C1094   1.416       .  A
C1078      C1086   1.378       .  A
C1079      C1087   1.385       .  A
C1079      C1096   1.450       .  A
C1080      C1095   1.430       .  A
C1080      C1088   1.377       .  A
C1081      C1093   1.446       .  A
C1081      C1089   1.371   1_556  A
C1082      C1096   1.444       .  A
C1082      C1090   1.361   1_556  A
C1083      C1091   1.379       .  A
C1083      C1094   1.423       .  A
C1084      C1092   1.377       .  A
C1084      C1095   1.430       .  A
C1085      H1097   1.069       .  S
C1086      H1098   1.083       .  S
C1087      H1099   1.077       .  S
C1088      H1100   1.083       .  S
C1089      C1090   1.343       .  A
C1089      H1101   1.059       .  S
C1090      H1102   1.052       .  S
C1091      C1092   1.375       .  A
C1091      H1103   1.077       .  S
C1092      H1104   1.062       .  S
C1093      C1138   1.574       .  S
C1096      C1109   1.579       .  S
C1107      C1108   1.556       .  S
C1107      C1113   1.506       .  S
C1107      C1111   1.502       .  S
C1107      C1920   1.539       .  S
C1108      H1115   1.081       .  S
C1108      C1109   1.391   1_554  D
C1109      C1110   1.589   1_556  S
C1110      C1114   1.588   1_554  S
C1110      C1112   1.588       .  S
C1110      H1116   1.106   1_554  S
C1111      H1117   1.086       .  S
C1111      C1112   1.347       .  D
C1112      C1930   1.521       .  S
C1113      H1118   1.083       .  S
C1113      C1114   1.359   1_554  D
C1114      C1219   1.548       .  S
C1119      C1120   1.528   1_554  S
C1119      C1125   1.540   1_554  S
C1119      C1123   1.515       .  S
C1119      C1900   1.548       .  S
C1120      H1127   1.077       .  S
C1120      C1121   1.370       .  D
C1121      C1122   1.599   1_556  S
C1121      C1222   1.546       .  S
C1122      C1126   1.597   1_554  S
C1122      C1124   1.562       .  S
C1122      H1128   1.102       .  S
C1123      H1129   1.085       .  S
C1123      C1124   1.330       .  D
C1124      C1913   1.498       .  S
C1125      H1130   1.075       .  S
C1125      C1126   1.385       .  D
C1126      C1186   1.566       .  S
C1131      C1132   1.520       .  S
C1131      C1137   1.547       .  S
C1131      C1135   1.492       .  S
C1131      C1880   1.534       .  S
C1132      H1139   1.082   1_554  S
C1132      C1133   1.370   1_554  D
C1133      C1134   1.577       .  S
C1133      C1187   1.552       .  S
C1134      C1138   1.584       .  S
C1134      C1136   1.581   1_556  S
C1134      H1140   1.095       .  S
C1135      H1141   1.090       .  S
C1135      C1136   1.339       .  D
C1136      C1890   1.487       .  S
C1137      H1142   1.081       .  S
C1137      C1138   1.389   1_554  D
O1143      C1158   1.259       .  A
O1143     Al1151   1.931       .  S
C1144      O1154   1.269       .  A
C1144      O1145   1.256       .  A
C1144      C1933   1.514       .  S
O1145     Al1147   1.898       .  S
O1146      C1148   1.256       .  A
O1146     Al1147   1.864       .  S
Al1147     O1155   1.884       .  S
Al1147     O1157   1.891       .  S
Al1147     O1156   1.775       .  S
C1148      O1161   1.271       .  A
C1148      C1893   1.499       .  S
O1149      C1159   1.261       .  A
O1149     Al1151   1.904       .  S
O1150      C1163   1.268       .  A
O1150     Al1160   1.920       .  S
Al1151     O1164   1.897       .  S
Al1151     O1161   1.954       .  S
Al1151     O1156   1.771       .  S
O1152      C1159   1.261       .  A
O1152     Al1160   1.932       .  S
O1153      C1162   1.275       .  A
O1153     Al1160   1.968       .  S
O1154     Al1160   1.962       .  S
O1155      C1162   1.258       .  A
O1156     Al1160   1.774       .  S
O1157      C1158   1.255       .  A
C1158      C1850   1.515       .  S
C1159      C1910   1.507       .  S
C1162      C1870   1.522       .  S
C1163      O1164   1.263       .  A
C1163      C1863   1.505       .  S
N1165      H1197   1.044       .  S
N1165      C1170   1.363       .  A
N1165      C3197   1.360       .  A
N1166      C1173   1.362       .  A
N1166      C1174   1.364       .  A
N1167      H1198   1.039       .  S
N1167      C1172   1.368       .  A
N1167      C3199   1.378       .  A
N1168      C1175   1.368       .  A
N1168      C1176   1.359       .  A
C1169      N3193   1.358   1_455  A
C1169      C1177   1.382       .  A
C1169      C1185   1.420       .  A
C1170      C1186   1.444       .  A
C1170      C1178   1.391       .  A
C1171      N3195   1.379   1_455  A
C1171      C1179   1.381       .  A
C1171      C1188   1.449       .  A
C1172      C1187   1.457       .  A
C1172      C1180   1.390       .  A
C1173      C1185   1.419       .  A
C1173      C1181   1.370       .  A
C1174      C1188   1.428       .  A
C1174      C1182   1.377       .  A
C1175      C1183   1.382       .  A
C1175      C1186   1.431       .  A
C1176      C1184   1.386       .  A
C1176      C1187   1.432       .  A
C1177      C3206   1.383       .  A
C1177      H1189   1.082       .  S
C1178      C3205   1.386       .  A
C1178      H1190   1.081   1_556  S
C1179      C3208   1.367   1_455  A
C1179      H1191   1.078       .  S
C1180      C3207   1.371       .  A
C1180      H1192   1.081       .  S
C1181      C1182   1.367       .  A
C1181      H1193   1.073       .  S
C1182      H1194   1.069       .  S
C1183      C1184   1.382       .  A
C1183      H1195   1.080       .  S
C1184      H1196   1.080       .  S
N1199      H1231   1.037       .  S
N1199      C1204   1.371       .  A
N1199      C1203   1.374       .  A
N1200      C1207   1.356       .  A
N1200      C1208   1.360       .  A
N1201      H1232   1.044       .  S
N1201      C1206   1.369       .  A
N1201      C1205   1.371       .  A
N1202      C1209   1.367       .  A
N1202      C1210   1.367       .  A
C1203      C1211   1.384       .  A
C1203      C1219   1.452       .  A
C1204      C1220   1.454       .  A
C1204      C1212   1.385       .  A
C1205      C1213   1.381       .  A
C1205      C1222   1.438       .  A
C1206      C1221   1.449       .  A
C1206      C1214   1.391       .  A
C1207      C1219   1.419       .  A
C1207      C1215   1.376   1_556  A
C1208      C1222   1.416       .  A
C1208      C1216   1.379   1_556  A
C1209      C1217   1.381       .  A
C1209      C1220   1.438       .  A
C1210      C1218   1.384       .  A
C1210      C1221   1.438       .  A
C1211      C1212   1.360       .  A
C1211      H1223   1.080       .  S
C1212      H1224   1.081       .  S
C1213      C1214   1.380       .  A
C1213      H1225   1.082       .  S
C1214      H1226   1.082       .  S
C1215      C1216   1.373       .  A
C1215      H1227   1.076       .  S
C1216      H1228   1.076       .  S
C1217      C1218   1.361       .  A
C1217      H1229   1.072       .  S
C1218      H1230   1.073       .  S
C1233      C1234   1.510       .  S
C1233      C1239   1.565       .  S
C1233      C3265   1.512       .  S
C1233      C1830   1.550       .  S
C1234      H1241   1.086       .  S
C1234      C3263   1.363       .  D
C1235      C1236   1.588       .  S
C1235      C3262   1.356       .  D
C1235      C1370   1.533       .  S
C1236      C1240   1.584       .  S
C1236      C1238   1.566       .  S
C1236      H1242   1.103       .  S
C1237      C3261   1.519   1_455  S
C1237      H1243   1.087       .  S
C1237      C1238   1.351       .  D
C1238      C1840   1.512       .  S
C1239      H1244   1.066       .  S
C1239      C3268   1.392       .  D
C1240      C3267   1.387   1_455  D
C1240      C1437   1.571       .  S
C1245      C1246   1.526       .  S
C1245      C1251   1.550       .  S
C1245      C1249   1.515       .  S
C1245      C1810   1.552       .  S
C1246      H1253   1.080       .  S
C1246      C1247   1.372       .  D
C1247      C1248   1.582       .  S
C1247      C1405   1.538       .  S
C1248      C1252   1.590       .  S
C1248      C1250   1.559       .  S
C1248      H1254   1.104       .  S
C1249      H1255   1.089       .  S
C1249      C1250   1.341       .  D
C1250      C1820   1.486       .  S
C1251      H1256   1.070       .  S
C1251      C1252   1.387       .  D
C1252      C1371   1.571       .  S
C1257      C1258   1.529       .  S
C1257      C1263   1.554       .  S
C1257      C1790   1.550       .  S
C1258      H1265   1.082       .  S
C1259      C1260   1.573       .  S
C1259      C1440   1.530       .  S
C1260      C1264   1.554       .  S
C1260      C1262   1.564       .  S
C1260      H1266   1.105       .  S
C1261      H1267   1.090       .  S
C1261      C1262   1.336       .  D
C1262      C1800   1.492       .  S
C1263      H1268   1.077       .  S
C1264      C1404   1.526       .  S
O1269      C1284   1.245       .  A
O1269     Al1277   1.838       .  S
C1270      O1280   1.257       .  A
C1270      O1271   1.264       .  A
C1270      C1803   1.495       .  S
O1271     Al1273   1.934       .  S
O1272      C1274   1.250       .  A
O1272     Al1273   1.845       .  S
Al1273     O1281   1.846       .  S
Al1273     O1283   1.931       .  S
Al1273     O1282   1.789       .  S
C1274      O1287   1.272       .  A
C1274      C1843   1.470       .  S
O1275      C1285   1.246       .  A
O1275     Al1277   1.835       .  S
O1276      C1289   1.257       .  A
O1276     Al1286   1.861       .  S
Al1277     O1290   1.941       .  S
Al1277     O1287   1.949       .  S
Al1277     O1282   1.768       .  S
O1278      C1285   1.265       .  A
O1278     Al1286   1.954       .  S
O1279      C1288   1.272       .  A
O1279     Al1286   1.966       .  S
O1280     Al1286   1.878       .  S
O1281      C1288   1.251       .  A
O1282     Al1286   1.775       .  S
O1283      C1284   1.259       .  A
C1284      C1780   1.472       .  S
C1285      C1823   1.494       .  S
C1288      C1763   1.479       .  S
C1289      O1290   1.269       .  A
C1289      C1770   1.483       .  S
C1291      C1292   1.558       .  S
C1291      C1297   1.522       .  S
C1291      C1295   1.520       .  S
C1291      C1873   1.559       .  S
C1292      H1299   1.064       .  S
C1292      C1293   1.388       .  D
C1293      C1294   1.573       .  S
C1294      C1298   1.581       .  S
C1294      C1296   1.555       .  S
C1294      H1300   1.102       .  S
C1295      H1301   1.089       .  S
C1295      C1296   1.342       .  D
C1296      C1753   1.487       .  S
C1297      H1302   1.084       .  S
C1297      C1298   1.368       .  D
C1298      C1372   1.534       .  S
C1303      C1304   1.550       .  S
C1303      C1309   1.500       .  S
C1303      C1307   1.526       .  S
C1303      C1860   1.541       .  S
C1304      H1311   1.069       .  S
C1304      C1305   1.386       .  D
C1305      C1306   1.595       .  S
C1305      C1406   1.575       .  S
C1306      C1310   1.602       .  S
C1306      C1308   1.575       .  S
C1306      H1312   1.100       .  S
C1307      H1313   1.083       .  S
C1307      C1308   1.345       .  D
C1308      C1740   1.537       .  S
C1309      H1314   1.084       .  S
C1309      C1310   1.358       .  D
C1310      C3466   1.539       .  S
C1315      C1316   1.546       .  S
C1315      C1321   1.545       .  S
C1315      C1319   1.504       .  S
C1315      C1853   1.561       .  S
C1316      H1323   1.079       .  S
C1316      C1317   1.386       .  D
C1317      C1318   1.586       .  S
C1317      C3397   1.580       .  S
C1318      C1322   1.579       .  S
C1318      C1320   1.564       .  S
C1318      H1324   1.100       .  S
C1319      H1325   1.090       .  S
C1319      C1320   1.338       .  D
C1320      C1730   1.477       .  S
C1321      H1326   1.079       .  S
C1321      C1322   1.387       .  D
O1327      C1342   1.252       .  A
O1327     Al3363   1.852       .  S
C1328      O1338   1.265       .  A
C1328      O1329   1.273       .  A
C1328      C1743   1.516       .  S
O1329     Al1331   1.955       .  S
O1330      C1332   1.247       .  A
Al1331     O1339   1.862       .  S
C1332      O1345   1.257       .  A
C1332      C1733   1.494       .  S
O1333      C1343   1.259       .  A
O1333     Al1335   1.874       .  S
O1334      C1347   1.267       .  A
Al1335     O3355   1.858   1_455  S
Al1335     O1348   1.873       .  S
Al1335     O3373   1.908   1_455  S
Al1335     O3368   1.767   1_455  S
O1336      C1343   1.264       .  A
O1337      C1346   1.268       .  A
O1337     Al3372   1.958       .  S
O1338     Al3372   1.923       .  S
O1339      C1346   1.252       .  A
O1340     Al3363   1.768       .  S
O1340     Al2358   1.776       .  S
O1341      C1342   1.270       .  A
C1342      C1883   1.469       .  S
C1343      C1750   1.499       .  S
Al1344     O3365   1.968   1_455  S
Al1344     O3366   1.911   1_455  S
Al1344     O2354   1.784   1_465  S
O1345     Al3363   1.915       .  S
C1346      C1903   1.503       .  S
C1347      O1348   1.258       .  A
C1347      C1923   1.478       .  S
N1349      H1381   1.037       .  S
N1349      C1354   1.366       .  A
N1349      C1353   1.379       .  A
N1350      C1357   1.363       .  A
N1350      C1358   1.360       .  A
N1351      H1382   1.043       .  S
N1351      C1356   1.371       .  A
N1351      C1355   1.364       .  A
N1352      C1359   1.360       .  A
N1352      C1360   1.367       .  A
C1353      C3389   1.388   1_455  A
C1353      C1369   1.463   1_455  A
C1354      C1370   1.444       .  A
C1354      C1362   1.383       .  A
C1355      C1363   1.382       .  A
C1355      C1372   1.430       .  A
C1356      C1371   1.444       .  A
C1356      C1364   1.390       .  A
C1357      C1369   1.441   1_455  A
C1357      C1365   1.386       .  A
C1358      C1372   1.427       .  A
C1358      C1366   1.380       .  A
C1359      C1367   1.375       .  A
C1359      C1370   1.423       .  A
C1360      C1368   1.382       .  A
C1360      C1371   1.427       .  A
C1361      C3381   1.384       .  A
C1361      C3390   1.364       .  A
C1361      H1373   1.074       .  S
C1362      C3389   1.366   1_455  A
C1362      H3402   1.083   1_455  S
C1363      C1364   1.377       .  A
C1363      H1375   1.083       .  S
C1364      H1376   1.081       .  S
C1365      C1366   1.366       .  A
C1365      H1377   1.071   1_455  S
C1366      H1378   1.073       .  S
C1367      C1368   1.372       .  A
C1367      H1379   1.079       .  S
C1368      H1380   1.076       .  S
C1369      C3345   1.574       .  S
H1374      C3390   1.081       .  S
N1383      H1415   1.044       .  S
N1383      C1388   1.364       .  A
N1383      C1387   1.366       .  A
N1384      C1391   1.376       .  A
N1384      C1392   1.370       .  A
N1385      H1416   1.044       .  S
N1385      C1390   1.365       .  A
N1385      C1389   1.363       .  A
N1386      C1393   1.355       .  A
N1386      C1394   1.360       .  A
C1387      C1403   1.444   1_565  A
C1388      C1404   1.420       .  A
C1388      C1396   1.376       .  A
C1389      C1397   1.390       .  A
C1389      C1406   1.437       .  A
C1390      C1405   1.426       .  A
C1390      C1398   1.380       .  A
C1391      C1403   1.445   1_565  A
C1391      C1399   1.381       .  A
C1392      C1406   1.432       .  A
C1392      C1400   1.360       .  A
C1393      C1401   1.387       .  A
C1393      C1404   1.425       .  A
C1394      C1402   1.382       .  A
C1394      C1405   1.420       .  A
C1395      H1407   1.064       .  S
C1397      C1398   1.377       .  A
C1397      H1409   1.082       .  S
C1398      H1410   1.083       .  S
C1399      C1400   1.349       .  A
C1399      H1411   1.065       .  S
C1400      H1412   1.069       .  S
C1401      C1402   1.374       .  A
C1401      H1413   1.074       .  S
C1402      H1414   1.077       .  S
N1417      H1449   1.044       .  S
N1417      C1422   1.361   1_455  A
N1417      C1421   1.367       .  A
N1418      C1425   1.364       .  A
N1418      C1426   1.366       .  A
N1419      H1450   1.044       .  S
N1419      C1424   1.363       .  A
N1419      C1423   1.358       .  A
N1420      C1427   1.363       .  A
N1420      C1428   1.367       .  A
C1421      C1429   1.392   1_455  A
C1421      C1437   1.441       .  A
C1422      C1438   1.427       .  A
C1422      C3458   1.381       .  A
C1423      C1431   1.380       .  A
C1423      C1440   1.417       .  A
C1424      C1439   1.435   1_565  A
C1425      C1437   1.425       .  A
C1425      C1433   1.368       .  A
C1426      C1440   1.419       .  A
C1426      C1434   1.372       .  A
C1427      C1435   1.362       .  A
C1427      C1438   1.417   1_455  A
C1428      C1436   1.383       .  A
C1428      C1439   1.436   1_565  A
C1429      C3458   1.381       .  A
C1429      H3469   1.078       .  S
C1430      C3450   1.382       .  A
C1430      C3457   1.381       .  A
C1430      H1442   1.083       .  S
C1432      H1444   1.081       .  S
C1433      C1434   1.349       .  A
C1433      H1445   1.058       .  S
C1434      H1446   1.069       .  S
C1435      C1436   1.365       .  A
C1435      H1447   1.073       .  S
C1436      H1448   1.071       .  S
C1438      C3338   1.539       .  S
H1441      C3457   1.078       .  S
C1451      C1452   1.559       .  S
C1451      C1457   1.515       .  S
C1451      C1455   1.499       .  S
C1451      C1943   1.536       .  S
C1452      H1459   1.078       .  S
C1452      C1453   1.388       .  D
C1453      C1454   1.603       .  S
C1453      C1590   1.593       .  S
C1454      C1458   1.598       .  S
C1454      C1456   1.601       .  S
C1454      H1460   1.108       .  S
C1455      H1461   1.090       .  S
C1455      C1456   1.339       .  D
C1456      C1720   1.518       .  S
C1457      H1462   1.084       .  S
C1457      C1458   1.360       .  D
C1463      C1464   1.551       .  S
C1463      C1469   1.538       .  S
C1463      C1467   1.498       .  S
C1463      C1953   1.559       .  S
C1464      H1471   1.077       .  S
C1464      C1465   1.382       .  D
C1465      C1466   1.584       .  S
C1465      C3683   1.575   1_455  S
C1466      C1470   1.578       .  S
C1466      C1468   1.588       .  S
C1466      H1472   1.100       .  S
C1467      H1473   1.091       .  S
C1467      C1468   1.344       .  D
C1468      C1710   1.495       .  S
C1469      H1474   1.073       .  S
C1469      C1470   1.381       .  D
C1470      C1624   1.585       .  S
C1475      C1476   1.542       .  S
C1475      C1481   1.546       .  S
C1475      C1479   1.500       .  S
C1475      C1960   1.549       .  S
C1476      H1483   1.077       .  S
C1476      C1477   1.373       .  D
C1477      C1478   1.574       .  S
C1478      C1482   1.577       .  S
C1478      C1480   1.600       .  S
C1478      H1484   1.102       .  S
C1479      H1485   1.091       .  S
C1479      C1480   1.339       .  D
C1480      C1700   1.511       .  S
C1481      H1486   1.078       .  S
C1481      C1482   1.381       .  D
C1482      C3615   1.573   1_455  S
O1487     Al1495   1.903       .  S
C1488      O1489   1.267       .  A
C1488      C1723   1.521       .  S
O1489     Al1491   1.941       .  S
O1490      C3520   1.259       .  A
O1490     Al1491   1.904       .  S
Al1491     O1499   1.897       .  S
Al1491     O1501   1.953       .  S
C1492      O3518   1.258   1_455  A
C1492      C1703   1.516       .  S
O1493      C1503   1.258       .  A
O1493     Al1495   1.885       .  S
O1494      C3535   1.251       .  A
O1494     Al1504   1.869       .  S
Al1495     O1508   1.899       .  S
Al1495     O1505   1.920       .  S
Al1495     O3528   1.791   1_455  S
O1496      C3531   1.264       .  A
O1496     Al1504   1.928       .  S
O1497     Al1504   1.924       .  S
O1498     Al1504   1.885       .  S
O1499      C1506   1.259       .  A
O1500     Al3523   1.789       .  S
O1500     Al1504   1.778       .  S
O1501      C3530   1.270       .  A
C1502      O3529   1.274   1_455  A
C1502      C2013   1.536       .  S
C1503      O3524   1.264       .  A
C1503      C1713   1.500       .  S
C1506      C1993   1.520       .  S
C1507      O3522   1.253   1_455  A
C1507      O1508   1.260       .  A
C1507      C1973   1.487       .  S
C1509      C1510   1.534       .  S
C1509      C1515   1.546       .  S
C1509      C1513   1.496       .  S
C1510      C1511   1.375       .  D
C1511      C1512   1.584       .  S
C1511      C1622   1.578       .  S
C1512      C1516   1.596       .  S
C1512      C1514   1.597       .  S
C1512      H1518   1.103       .  S
C1513      H1519   1.091       .  S
C1513      C1514   1.338       .  D
C1514      C1690   1.504       .  S
C1515      C1516   1.384       .  D
C1516      C1657   1.587       .  S
C1521      C1522   1.526       .  S
C1521      C1527   1.562       .  S
C1521      C1525   1.495       .  S
C1521      C3811   1.551       .  S
C1522      H3557   1.084       .  S
C1522      C1523   1.375       .  D
C1523      C1524   1.584       .  S
C1523      C1658   1.563       .  S
C1524      C1528   1.581       .  S
C1524      C1526   1.587       .  S
C1524      H1530   1.104       .  S
C1525      H1531   1.091       .  S
C1525      C1526   1.339       .  D
C1526      C1680   1.494       .  S
C1527      H3560   1.079       .  S
C1527      C1528   1.392       .  D
C1528      C1588   1.585       .  S
H1529      C3550   1.082   1_455  S
H1532      C3555   1.078   1_455  S
C1533      C1534   1.517       .  S
C1533      C1539   1.555       .  S
C1533      C1537   1.504       .  S
C1533      C1773   1.547       .  S
C1534      H1541   1.082       .  S
C1534      C1535   1.368       .  D
C1535      C1536   1.601       .  S
C1535      C1589   1.567       .  S
C1536      C1540   1.582       .  S
C1536      C1538   1.591       .  S
C1536      H1542   1.107       .  S
C1537      H1543   1.090       .  S
C1537      C1538   1.344       .  D
C1538      C1670   1.518       .  S
C1539      H1544   1.076       .  S
C1539      C1540   1.383       .  D
C1540      C1621   1.572       .  S
O1545      C1560   1.267       .  A
O1545     Al1553   1.904       .  S
C1546      O1556   1.269       .  A
C1546      O1547   1.265       .  A
C1546      C1673   1.514       .  S
O1547     Al1549   1.924       .  S
O1548      C1550   1.258       .  A
O1548     Al1549   1.924       .  S
Al1549     O1557   1.946       .  S
Al1549     O1559   1.910       .  S
Al1549     O1558   1.782       .  S
C1550      O1563   1.262       .  A
C1550      C1683   1.502       .  S
O1551      C1561   1.262       .  A
O1551     Al1553   1.927       .  S
O1552      C1565   1.265       .  A
O1552     Al1562   1.930       .  S
Al1553     O1566   1.881       .  S
Al1553     O1563   1.903       .  S
Al1553     O1558   1.774       .  S
O1554      C1561   1.257       .  A
O1554     Al1562   1.892       .  S
O1555      C1564   1.258       .  A
O1555     Al1562   1.909       .  S
O1556     Al1562   1.940       .  S
O1557      C1564   1.266       .  A
O1558     Al1562   1.782       .  S
O1559      C1560   1.266       .  A
C1560      C1833   1.484       .  S
C1561      C1693   1.514       .  S
C1564      C1813   1.527       .  S
C1565      O1566   1.253       .  A
C1565      C1793   1.511       .  S
N1567      H1599   1.007       .  S
N1567      C1572   1.380       .  A
N1567      C1571   1.376       .  A
N1568      C1575   1.372       .  A
N1568      C1576   1.375       .  A
N1569      H1600   1.012       .  S
N1569      C1574   1.372       .  A
N1569      C1573   1.379       .  A
N1570      C1577   1.374       .  A
N1570      C1578   1.372       .  A
C1571      C1579   1.387       .  A
C1571      C1587   1.466       .  A
C1572      C1588   1.465       .  A
C1572      C1580   1.386       .  A
C1573      C1581   1.387       .  A
C1573      C1590   1.464       .  A
C1574      C1589   1.455       .  A
C1574      C1582   1.384       .  A
C1575      C1587   1.447       .  A
C1575      C1583   1.377       .  A
C1576      C1590   1.438       .  A
C1576      C1584   1.363       .  A
C1577      C1585   1.383       .  A
C1577      C1588   1.451       .  A
C1578      C1586   1.373       .  A
C1578      C1589   1.440       .  A
C1579      C1580   1.374       .  A
C1579      H3619   1.081       .  S
C1580      H1592   1.074       .  S
C1581      C1582   1.373       .  A
C1581      H1593   1.070       .  S
C1582      H1594   1.082       .  S
C1583      C1584   1.336       .  A
C1583      H1595   1.057       .  S
C1584      H1596   1.058       .  S
C1585      C1586   1.371       .  A
C1585      H1597   1.071       .  S
C1586      H1598   1.075       .  S
C1587      C3510   1.573       .  S
H1591      C3607   1.080       .  S
N1601      H1633   1.042       .  S
N1601      C1606   1.375       .  A
N1601      C1605   1.372       .  A
N1602      C1609   1.371       .  A
N1602      C1610   1.371       .  A
N1603      H1634   1.039       .  S
N1603      C1608   1.377       .  A
N1603      C1607   1.382       .  A
N1604      C1611   1.375       .  A
N1604      C1612   1.373       .  A
C1605      C1613   1.368       .  A
C1605      C1621   1.437       .  A
C1606      C1622   1.444       .  A
C1606      C1614   1.379       .  A
C1607      C1615   1.377       .  A
C1607      C1624   1.455       .  A
C1608      C1623   1.457       .  A
C1608      C1616   1.373       .  A
C1609      C1621   1.448       .  A
C1609      C1617   1.382       .  A
C1610      C1624   1.450       .  A
C1610      C1618   1.382       .  A
C1611      C1619   1.381       .  A
C1611      C1622   1.453       .  A
C1612      C1620   1.385       .  A
C1612      C1623   1.457       .  A
C1613      C1614   1.354       .  A
C1613      H1625   1.062       .  S
C1614      H1626   1.064       .  S
C1615      C1616   1.355       .  A
C1615      H1627   1.068       .  S
C1616      H1628   1.048       .  S
C1617      C1618   1.361       .  A
C1617      H1629   1.076       .  S
C1618      H1630   1.081       .  S
C1619      C1620   1.366       .  A
C1619      H1631   1.081       .  S
N1635      H1667   1.039       .  S
N1635      C1640   1.371       .  A
N1635      C1639   1.371       .  A
N1636      C1643   1.373       .  A
N1636      C1644   1.370       .  A
N1637      H1668   1.038       .  S
N1637      C1642   1.376       .  A
N1637      C1641   1.373       .  A
N1638      C1645   1.372       .  A
N1638      C1646   1.374       .  A
C1639      C1647   1.385       .  A
C1639      C1655   1.451       .  A
C1640      C1656   1.438       .  A
C1640      C1648   1.379       .  A
C1641      C1649   1.381       .  A
C1641      C1658   1.447       .  A
C1642      C1657   1.451       .  A
C1642      C1650   1.381       .  A
C1643      C1655   1.447       .  A
C1643      C1651   1.383       .  A
C1644      C1658   1.453       .  A
C1644      C1652   1.386       .  A
C1645      C1653   1.380       .  A
C1645      C1656   1.450       .  A
C1646      C1654   1.387       .  A
C1646      C1657   1.465       .  A
C1647      C1648   1.364       .  A
C1647      H1659   1.068       .  S
C1648      H1660   1.072       .  S
C1649      C1650   1.359       .  A
C1649      H1661   1.069       .  S
C1650      H1662   1.071       .  S
C1651      C1652   1.362       .  A
C1651      H3691   1.077       .  S
C1652      H1664   1.081       .  S
C1653      C1654   1.364       .  A
C1654      H1666   1.070       .  S
C1655      C3493   1.568       .  S
H1663      C3679   1.073       .  S
C1669      C1670   1.391       .  A
C1669      C1674   1.409       .  A
C1669     Br1676   1.928       .  S
C1670      C1671   1.431       .  A
C1671      C1672   1.417       .  A
C1671     Br1678   1.931       .  S
C1672      C1673   1.411       .  A
C1672     Br1677   1.929       .  S
C1673      C1674   1.420       .  A
C1674     Br1675   1.878       .  S
C1679      C1680   1.424       .  A
C1679      C1684   1.411       .  A
C1679     Br1686   1.941       .  S
C1680      C1681   1.424       .  A
C1681      C1682   1.411       .  A
C1681     Br1688   1.927       .  S
C1682      C1683   1.405       .  A
C1682     Br1687   1.929       .  S
C1683      C1684   1.419       .  A
C1684     Br1685   1.931       .  S
C1689      C1690   1.421       .  A
C1689      C1694   1.416       .  A
C1689     Br1696   1.937       .  S
C1690      C1691   1.426       .  A
C1691      C1692   1.415       .  A
C1691     Br1698   1.936       .  S
C1692      C1693   1.419       .  A
C1692     Br1697   1.940       .  S
C1693      C1694   1.423       .  A
C1694     Br1695   1.933       .  S
C1699      C1700   1.422       .  A
C1699      C1704   1.416       .  A
C1699     Br1706   1.936   1_565  S
C1700      C1701   1.430   1_455  A
C1701      C1702   1.420       .  A
C1701     Br3736   1.935       .  S
C1702      C1703   1.414   1_655  A
C1702     Br3735   1.934       .  S
C1703      C1704   1.415       .  A
C1704     Br1705   1.933   1_565  S
Br1707     C3730   1.936       .  S
Br1708     C3729   1.933       .  S
C1709      C1710   1.424       .  A
C1709      C1714   1.413       .  A
C1709     Br1716   1.937   1_455  S
C1710      C1711   1.421       .  A
C1711      C1712   1.411       .  A
C1711     Br1718   1.934       .  S
C1712      C1713   1.412       .  A
C1712     Br1717   1.936       .  S
C1713      C1714   1.413       .  A
C1714     Br1715   1.936   1_455  S
C1719      C1720   1.392       .  A
C1719      C1724   1.403       .  A
C1720      C1721   1.427       .  A
C1721      C1722   1.427       .  A
C1721     Br1728   1.926       .  S
C1722      C1723   1.420       .  A
C1722     Br1727   1.930       .  S
C1723      C1724   1.413       .  A
C1729      C1730   1.414       .  A
C1729      C1734   1.405       .  A
C1729     Br1736   1.939       .  S
C1730      C1731   1.417       .  A
C1731      C1732   1.407       .  A
C1731     Br1738   1.942       .  S
C1732      C1733   1.420       .  A
C1732     Br3765   1.940       .  S
C1733      C1734   1.425       .  A
Br1737     C3760   1.939       .  S
C1739      C1740   1.435       .  A
C1739      C1744   1.417       .  A
C1739     Br1746   1.937       .  S
C1740      C1741   1.409       .  A
C1741      C1742   1.416       .  A
C1741     Br1748   1.934       .  S
C1742      C1743   1.422       .  A
C1742     Br1747   1.891       .  S
C1743      C1744   1.405       .  A
C1744     Br1745   1.928       .  S
C1749      C1750   1.414       .  A
C1749      C1754   1.407       .  A
C1749     Br1756   1.933       .  S
C1750      C1751   1.420       .  A
C1751      C1752   1.411       .  A
C1752      C1753   1.416       .  A
C1752     Br1757   1.936       .  S
C1753      C1754   1.412       .  A
C1754     Br1755   1.932       .  S
C1759      C1760   1.407       .  A
C1759      C1764   1.410       .  A
C1759     Br1766   1.926       .  S
C1760      C1761   1.426       .  A
C1761      C1762   1.402       .  A
C1761     Br1768   1.936       .  S
C1762      C1763   1.412       .  A
C1762     Br1767   1.940       .  S
C1763      C1764   1.413       .  A
C1764     Br1765   1.917       .  S
C1769      C1770   1.413       .  A
C1769      C1774   1.411       .  A
C1769     Br1776   1.927       .  S
C1770      C1771   1.411       .  A
C1771      C1772   1.403       .  A
C1771     Br1778   1.942       .  S
C1772      C1773   1.431       .  A
C1772     Br1777   1.945       .  S
C1773      C1774   1.417       .  A
C1774     Br1775   1.931       .  S
C1779      C1780   1.413       .  A
C1779      C1784   1.401       .  A
C1779     Br1786   1.938       .  S
C1780      C1781   1.415       .  A
C1781      C1782   1.403       .  A
C1781     Br1788   1.917       .  S
C1782      C1783   1.400       .  A
C1782     Br1787   1.924       .  S
C1783      C3549   1.535       .  S
C1783      C1784   1.419       .  A
C1784     Br1785   1.929       .  S
C1789      C1790   1.407       .  A
C1789      C1794   1.417       .  A
C1789     Br1796   1.928       .  S
C1790      C1791   1.424       .  A
C1791      C1792   1.410       .  A
C1791     Br1798   1.933       .  S
C1792      C1793   1.418       .  A
C1792     Br1797   1.937       .  S
C1793      C1794   1.432       .  A
C1794     Br1795   1.934       .  S
C1799      C1800   1.421       .  A
C1799      C1804   1.407       .  A
C1799     Br1806   1.938       .  S
C1800      C1801   1.418       .  A
C1801      C1802   1.413       .  A
C1801     Br1808   1.936       .  S
C1802      C1803   1.418       .  A
C1802     Br1807   1.935       .  S
C1803      C1804   1.413       .  A
C1804     Br1805   1.939       .  S
C1809      C1810   1.399       .  A
C1809      C1814   1.413       .  A
C1809     Br1816   1.928       .  S
C1810      C1811   1.422       .  A
C1811      C1812   1.421       .  A
C1811     Br1818   1.930       .  S
C1812      C1813   1.430       .  A
C1812     Br1817   1.935       .  S
C1813      C1814   1.432       .  A
C1814     Br1815   1.918       .  S
C1819      C1820   1.422       .  A
C1819      C1824   1.413       .  A
C1819     Br1826   1.932       .  S
C1820      C1821   1.412       .  A
C1821      C1822   1.407       .  A
C1821     Br1828   1.935       .  S
C1822      C1823   1.417       .  A
C1822     Br1827   1.936       .  S
C1823      C1824   1.407       .  A
C1824     Br1825   1.929       .  S
C1829      C1830   1.414       .  A
C1829      C1834   1.417       .  A
C1829     Br1836   1.928       .  S
C1830      C1831   1.427       .  A
C1831      C1832   1.398       .  A
C1831     Br1838   1.941       .  S
C1832      C1833   1.407       .  A
C1832     Br1837   1.939       .  S
C1833      C1834   1.416       .  A
C1834     Br1835   1.922       .  S
C1839      C1840   1.423       .  A
C1839      C1844   1.402       .  A
C1839     Br1846   1.936       .  S
C1840      C1841   1.410       .  A
C1841      C1842   1.410       .  A
C1841     Br1848   1.925       .  S
C1842      C1843   1.413       .  A
C1842     Br1847   1.920       .  S
C1843      C1844   1.402       .  A
C1844     Br1845   1.931       .  S
C1849      C1850   1.427       .  A
C1849      C1854   1.419       .  A
C1849     Br1856   1.916       .  S
C1850      C1851   1.423       .  A
C1851      C1852   1.408       .  A
C1851     Br1858   1.949       .  S
C1852      C1853   1.424       .  A
C1852     Br1857   1.923       .  S
C1853      C1854   1.407       .  A
C1854     Br1855   1.929       .  S
C1859      C1860   1.417       .  A
C1859      C1864   1.410       .  A
C1859     Br1866   1.934       .  S
C1860      C1861   1.398       .  A
C1861      C1862   1.410       .  A
C1861     Br1868   1.926       .  S
C1862      C1863   1.426       .  A
C1862     Br1867   1.917       .  S
C1863      C1864   1.429       .  A
C1864     Br1865   1.940       .  S
C1869      C1870   1.423       .  A
C1869      C1874   1.416       .  A
C1869     Br1876   1.940       .  S
C1870      C1871   1.433       .  A
C1871      C1872   1.415       .  A
C1871     Br1878   1.929       .  S
C1872      C1873   1.407       .  A
C1872     Br1877   1.931       .  S
C1873      C1874   1.430       .  A
C1874     Br1875   1.936       .  S
C1879      C1880   1.426       .  A
C1879      C1884   1.399       .  A
C1879     Br1886   1.940       .  S
C1880      C1881   1.406       .  A
C1881      C1882   1.405       .  A
C1881     Br1888   1.924   1_554  S
C1882      C1883   1.408       .  A
C1883      C1884   1.408       .  A
C1884     Br1885   1.937       .  S
C1889      C1890   1.411       .  A
C1889      C1894   1.413       .  A
C1889     Br1896   1.932       .  S
C1890      C1891   1.424       .  A
C1891      C1892   1.407       .  A
C1891     Br1898   1.940       .  S
C1892      C1893   1.416       .  A
C1892     Br1897   1.942       .  S
C1893      C1894   1.417       .  A
C1894     Br1895   1.922       .  S
C1899      C1900   1.422       .  A
C1899      C1904   1.411       .  A
C1899     Br1906   1.930       .  S
C1900      C1901   1.417       .  A
C1901      C1902   1.417       .  A
C1901     Br1908   1.923   1_554  S
C1902      C1903   1.418       .  A
C1902     Br3935   1.929       .  S
C1903      C1904   1.419       .  A
C1904     Br1905   1.937       .  S
Br1907     C3930   1.929   1_455  S
C1909      C1910   1.418       .  A
C1909      C1914   1.418       .  A
C1909     Br1916   1.932       .  S
C1910      C1911   1.408       .  A
C1911      C1912   1.414       .  A
C1911     Br1918   1.929       .  S
C1912      C1913   1.418       .  A
C1912     Br1917   1.930       .  S
C1913      C1914   1.423       .  A
C1914     Br1915   1.933       .  S
C1919      C1920   1.421       .  A
C1919      C1924   1.394       .  A
C1919     Br1926   1.941       .  S
C1920      C1921   1.412       .  A
C1921      C1922   1.415       .  A
C1921     Br1928   1.925   1_554  S
C1922      C1923   1.413       .  A
C1923      C1924   1.413       .  A
C1924     Br1925   1.938       .  S
C1929      C1930   1.419       .  A
C1929      C1934   1.411       .  A
C1929     Br1936   1.936       .  S
C1930      C1931   1.394       .  A
C1931      C1932   1.414       .  A
C1931     Br1938   1.928       .  S
C1932      C1933   1.423       .  A
C1932     Br1937   1.888       .  S
C1933      C1934   1.421       .  A
C1934     Br1935   1.933       .  S
C1939      C1940   1.425       .  A
C1939      C1944   1.407       .  A
C1939     Br1946   1.929       .  S
C1940      C1941   1.420       .  A
C1941      C1942   1.404       .  A
C1941     Br1948   1.943       .  S
C1942      C1943   1.429       .  A
C1942     Br1947   1.951       .  S
C1943      C1944   1.403       .  A
C1944     Br1945   1.929       .  S
C1949      C1950   1.421       .  A
C1949      C1954   1.404       .  A
C1949     Br1956   1.946       .  S
C1950      C1951   1.424       .  A
C1951      C1952   1.419       .  A
C1951     Br1958   1.928       .  S
C1952      C1953   1.416       .  A
C1952     Br1957   1.930       .  S
C1953      C1954   1.427       .  A
C1954     Br1955   1.939       .  S
C1959      C1960   1.420       .  A
C1959      C1964   1.405       .  A
C1959     Br1966   1.937       .  S
C1960      C1961   1.412       .  A
C1961      C1962   1.414       .  A
C1961     Br1968   1.933       .  S
C1962      C1963   1.430       .  A
C1962     Br1967   1.937       .  S
C1963      C1964   1.421       .  A
C1964     Br1965   1.941       .  S
C1969      C1970   1.425       .  A
C1969      C1974   1.400       .  A
C1969     Br1976   1.933       .  S
C1970      C1971   1.396       .  A
C1971      C1972   1.404       .  A
C1971     Br1978   1.928       .  S
C1972      C1973   1.424       .  A
C1972     Br4005   1.917   1_455  S
C1973      C1974   1.414       .  A
C1974     Br1975   1.941       .  S
Br1977     C4000   1.925       .  S
C1979      C1980   1.425       .  A
C1979      C1984   1.411       .  A
C1979     Br1986   1.940       .  S
C1980      C1981   1.422       .  A
C1981      C1982   1.404       .  A
C1981     Br1988   1.928       .  S
C1982      C1983   1.400       .  A
C1982     Br1987   1.931       .  S
C1983      C1984   1.417       .  A
C1984     Br1985   1.935       .  S
C1989      C1990   1.403       .  A
C1989      C1994   1.411       .  A
C1989     Br1996   1.924       .  S
C1990      C1991   1.417       .  A
C1991      C1992   1.419       .  A
C1991     Br1998   1.926   1_565  S
C1992      C1993   1.429       .  A
C1992     Br1997   1.933   1_565  S
C1993      C1994   1.431       .  A
C1994     Br1995   1.926       .  S
C1999      C2000   1.415       .  A
C1999      C2004   1.406       .  A
C1999     Br2006   1.938       .  S
C2000      C2001   1.418       .  A
C2001      C2002   1.412       .  A
C2001     Br2008   1.926       .  S
C2002      C2003   1.414       .  A
C2002     Br2007   1.935       .  S
C2003      C2004   1.414       .  A
C2004     Br2005   1.937       .  S
C2009      C2010   1.409       .  A
C2009      C2014   1.422       .  A
C2009     Br2016   1.930       .  S
C2010      C2011   1.431       .  A
C2011      C2012   1.423       .  A
C2011     Br2018   1.937   1_455  S
C2012      C2013   1.424       .  A
C2012     Br4045   1.936   1_455  S
C2013      C2014   1.435       .  A
Br2017     C4040   1.938       .  S
C2019      C2020   1.402       .  A
C2019      C2024   1.401       .  A
C2019     Br2026   1.930       .  S
C2020      C2021   1.417       .  A
C2021      C2022   1.415       .  A
C2021     Br2028   1.914       .  S
C2022      C2023   1.413       .  A
C2022     Br2027   1.928       .  S
C2023      C2024   1.426       .  A
C2024     Br2025   1.938       .  S
C2029      C2030   1.561       .  S
C2029      C2035   1.526       .  S
C2029      C2033   1.520       .  S
C2029      C3024   1.559       .  S
C2030      H2037   1.079       .  S
C2030      C2031   1.380       .  D
C2031      C2032   1.564       .  S
C2031      C2109   1.537       .  S
C2032      C2036   1.600       .  S
C2032      C2034   1.560       .  S
C2032      H2038   1.106       .  S
C2033      H2039   1.088       .  S
C2033      C2034   1.346       .  D
C2034      C3037   1.513       .  S
C2035      H2040   1.086       .  S
C2035      C2036   1.371       .  D
C2036      C2199   1.541       .  S
C2041      C2042   1.546       .  S
C2041      C2047   1.533       .  S
C2041      C2045   1.520       .  S
C2041      C3004   1.562       .  S
C2042      H2049   1.069       .  S
C2042      C2043   1.387       .  D
C2043      C2044   1.607       .  S
C2043      C2235   1.586       .  S
C2044      C2048   1.580       .  S
C2044      C2046   1.563       .  S
C2044      H2050   1.101       .  S
C2045      H2051   1.089       .  S
C2045      C2046   1.339       .  D
C2046      C3017   1.498       .  S
C2047      H2052   1.081       .  S
C2047      C2048   1.370       .  D
C2048      C2108   1.543       .  S
C2053      C2054   1.551       .  S
C2053      C2059   1.535       .  S
C2053      C2057   1.499       .  S
C2053      C2984   1.552       .  S
C2054      H2061   1.081       .  S
C2054      C2055   1.386       .  D
C2055      C2056   1.572       .  S
C2055      C2202   1.567       .  S
C2056      C2060   1.579       .  S
C2056      C2058   1.576       .  S
C2056      H2062   1.102       .  S
C2057      H2063   1.090       .  S
C2057      C2058   1.341       .  D
C2058      C2994   1.480       .  S
C2059      H2064   1.082       .  S
C2059      C2060   1.381       .  D
C2060      C2234   1.569       .  S
O2065      C2080   1.256       .  A
O2065     Al2073   1.893       .  S
C2066      O2076   1.258       .  A
C2066      O2067   1.254       .  A
C2066      C2997   1.484       .  S
O2067     Al2069   1.910       .  S
O2068      C2070   1.262       .  A
O2068     Al2069   1.909       .  S
Al2069     O2077   1.904       .  S
Al2069     O2079   1.912       .  S
Al2069     O2078   1.784       .  S
C2070      O2083   1.267       .  A
C2070      C3034   1.485       .  S
O2071      C2081   1.257       .  A
O2071     Al2073   1.895       .  S
O2072      C2085   1.255       .  A
O2072     Al2082   1.875       .  S
Al2073     O2086   1.911       .  S
Al2073     O2083   1.917       .  S
Al2073     O2078   1.773       .  S
O2074      C2081   1.261       .  A
O2074     Al2082   1.926       .  S
O2075      C2084   1.268       .  A
O2075     Al2082   1.911       .  S
O2076     Al2082   1.889       .  S
O2077      C2084   1.266       .  A
O2078     Al2082   1.766       .  S
O2079      C2080   1.261       .  A
C2080      C2977   1.498       .  S
C2081      C3014   1.505       .  S
C2084      C2964   1.499       .  S
C2085      O2086   1.265       .  A
C2085      C2954   1.494       .  S
N2087      H2119   1.044       .  S
N2087      C3106   1.360   1_545  A
N2087      C2091   1.362       .  A
N2088      C2095   1.378       .  A
N2088      C2096   1.371       .  A
N2089      H2120   1.036       .  S
N2089      C3108   1.373   1_545  A
N2089      C2093   1.370       .  A
N2090      C2097   1.366       .  A
N2090      C2098   1.357       .  A
C2091      C2099   1.391       .  A
C2091      C2107   1.432       .  A
C2092      N3101   1.363       .  A
C2092      C2108   1.420       .  A
C2092      C2100   1.378       .  A
C2093      C2101   1.387       .  A
C2093      C2110   1.454       .  A
C2094      N3103   1.365       .  A
C2094      C2109   1.427       .  A
C2094      C2102   1.377       .  A
C2095      C2107   1.437       .  A
C2095      C2103   1.370   1_556  A
C2096      C2110   1.445       .  A
C2096      C2104   1.361   1_556  A
C2097      C2105   1.377       .  A
C2097      C2108   1.420       .  A
C2098      C2106   1.376       .  A
C2098      C2109   1.426       .  A
C2099      C3114   1.375   1_545  A
C2099      H2111   1.080   1_556  S
C2100      C3113   1.378       .  A
C2100      H2112   1.083       .  S
C2101      C3116   1.377   1_545  A
C2101      H2113   1.076       .  S
C2102      C3115   1.377       .  A
C2102      H2114   1.083       .  S
C2103      C2104   1.345       .  A
C2103      H2115   1.062       .  S
C2104      H2116   1.049       .  S
C2105      C2106   1.374       .  A
C2105      H2117   1.076       .  S
C2106      H2118   1.063       .  S
C2107      C2152   1.575       .  S
C2110      C2123   1.575       .  S
C2121      C2122   1.560       .  S
C2121      C2127   1.512       .  S
C2121      C2125   1.501       .  S
C2121      C2934   1.537       .  S
C2122      H2129   1.082       .  S
C2122      C2123   1.388   1_554  D
C2123      C2124   1.588   1_556  S
C2124      C2128   1.591   1_554  S
C2124      C2126   1.586       .  S
C2124      H2130   1.108   1_554  S
C2125      H2131   1.085       .  S
C2125      C2126   1.344       .  D
C2126      C2944   1.517       .  S
C2127      H2132   1.085       .  S
C2127      C2128   1.362   1_554  D
C2128      C2233   1.545       .  S
C2133      C2134   1.531   1_554  S
C2133      C2139   1.545   1_554  S
C2133      C2137   1.516       .  S
C2133      C2914   1.557       .  S
C2134      H2141   1.077       .  S
C2134      C2135   1.369       .  D
C2135      C2136   1.594   1_556  S
C2135      C2236   1.544       .  S
C2136      C2140   1.590   1_554  S
C2136      C2138   1.559       .  S
C2136      H2142   1.100       .  S
C2137      H2143   1.088       .  S
C2137      C2138   1.334       .  D
C2138      C2927   1.497       .  S
C2139      H2144   1.076       .  S
C2139      C2140   1.393       .  D
C2140      C2200   1.568       .  S
C2145      C2146   1.520   1_554  S
C2145      C2151   1.562   1_554  S
C2145      C2149   1.502       .  S
C2145      C2894   1.559       .  S
C2146      H2153   1.081       .  S
C2146      C2147   1.375       .  D
C2147      C2148   1.584       .  S
C2147      C2201   1.561       .  S
C2148      C2152   1.581       .  S
C2148      C2150   1.564   1_556  S
C2148      H2154   1.095       .  S
C2149      H2155   1.090       .  S
C2149      C2150   1.337       .  D
C2150      C2904   1.482       .  S
C2151      H2156   1.063       .  S
C2151      C2152   1.395       .  D
O2157      C2172   1.257       .  A
O2157     Al2165   1.914       .  S
C2158      O2168   1.267       .  A
C2158      O2159   1.259       .  A
C2158      C2947   1.508       .  S
O2159     Al2161   1.901       .  S
O2160      C2162   1.253       .  A
O2160     Al2161   1.851       .  S
Al2161     O2169   1.895       .  S
Al2161     O2171   1.878       .  S
Al2161     O2170   1.776       .  S
C2162      O2175   1.272       .  A
C2162      C2907   1.492       .  S
O2163      C2173   1.261       .  A
O2163     Al2165   1.907       .  S
O2164      C2177   1.267       .  A
O2164     Al2174   1.912       .  S
Al2165     O2178   1.903       .  S
Al2165     O2175   1.956       .  S
Al2165     O2170   1.771       .  S
O2166      C2173   1.263       .  A
O2166     Al2174   1.938       .  S
O2167      C2176   1.275       .  A
O2167     Al2174   1.963       .  S
O2168     Al2174   1.948       .  S
O2169      C2176   1.259       .  A
O2170     Al2174   1.770       .  S
O2171      C2172   1.253       .  A
C2172      C2864   1.499       .  S
C2173      C2924   1.511       .  S
C2176      C2884   1.524       .  S
C2177      O2178   1.266       .  A
C2177      C2877   1.500       .  S
N2179      H2211   1.044       .  S
N2179      C2184   1.363       .  A
N2180      C2187   1.362       .  A
N2180      C2188   1.363       .  A
N2181      H2212   1.038       .  S
N2181      C2186   1.370       .  A
N2182      C2189   1.369       .  A
N2182      C2190   1.361       .  A
C2183      C2191   1.381       .  A
C2183      C2199   1.428       .  A
C2184      C2200   1.441       .  A
C2184      C2192   1.390   1_655  A
C2185      C2193   1.379       .  A
C2185      C2202   1.450       .  A
C2186      C2201   1.460       .  A
C2186      C2194   1.388       .  A
C2187      C2199   1.421       .  A
C2187      C2195   1.369       .  A
C2188      C2202   1.436       .  A
C2188      C2196   1.382       .  A
C2189      C2197   1.385       .  A
C2189      C2200   1.440       .  A
C2190      C2198   1.388       .  A
C2190      C2201   1.439       .  A
C2191      H2203   1.082       .  S
C2192      H2204   1.081   1_456  S
C2193      H2205   1.077       .  S
C2194      H2206   1.081       .  S
C2195      C2196   1.368       .  A
C2195      H2207   1.070       .  S
C2196      H2208   1.069       .  S
C2197      C2198   1.386       .  A
C2197      H2209   1.080       .  S
C2198      H2210   1.079       .  S
N2213      H2245   1.037       .  S
N2213      C2218   1.373       .  A
N2213      C2217   1.377       .  A
N2214      C2221   1.355       .  A
N2214      C2222   1.359       .  A
N2215      H2246   1.044       .  S
N2215      C2220   1.370       .  A
N2215      C2219   1.372       .  A
N2216      C2223   1.370       .  A
N2216      C2224   1.374       .  A
C2217      C2225   1.384       .  A
C2217      C2233   1.454       .  A
C2218      C2234   1.460       .  A
C2218      C2226   1.389       .  A
C2219      C2227   1.381       .  A
C2219      C2236   1.439       .  A
C2220      C2235   1.452       .  A
C2220      C2228   1.390       .  A
C2221      C2233   1.419       .  A
C2221      C2229   1.379   1_556  A
C2222      C2236   1.414       .  A
C2222      C2230   1.380   1_556  A
C2223      C2231   1.385       .  A
C2223      C2234   1.453       .  A
C2224      C2232   1.377       .  A
C2224      C2235   1.440       .  A
C2225      C2226   1.367       .  A
C2225      H2237   1.080       .  S
C2226      H2238   1.080       .  S
C2227      C2228   1.380       .  A
C2227      H2239   1.082       .  S
C2228      H2240   1.082       .  S
C2229      C2230   1.373       .  A
C2229      H2241   1.077       .  S
C2230      H2242   1.077       .  S
C2231      C2232   1.359       .  A
C2231      H2243   1.068       .  S
C2232      H2244   1.072       .  S
C2247      C2248   1.511   1_655  S
C2247      C2253   1.562       .  S
C2247      C2844   1.548       .  S
C2248      H2255   1.085   1_455  S
C2249      C2250   1.599       .  S
C2249      C2384   1.557       .  S
C2250      C2254   1.585       .  S
C2250      C2252   1.569       .  S
C2250      H2256   1.107       .  S
C2251      H2257   1.089       .  S
C2251      C2252   1.344       .  D
C2252      C2854   1.496       .  S
C2253      H2258   1.066       .  S
C2254      C2451   1.577       .  S
C2259      C2260   1.530       .  S
C2259      C2265   1.550       .  S
C2259      C2263   1.519       .  S
C2259      C2824   1.555       .  S
C2260      H2267   1.081       .  S
C2260      C2261   1.372       .  D
C2261      C2262   1.584       .  S
C2261      C2419   1.542       .  S
C2262      C2266   1.588       .  S
C2262      C2264   1.557       .  S
C2262      H2268   1.101       .  S
C2263      H2269   1.088       .  S
C2263      C2264   1.337       .  D
C2264      C2834   1.489       .  S
C2265      H2270   1.070       .  S
C2265      C2266   1.386       .  D
C2266      C2385   1.572       .  S
C2271      C2272   1.530   1_545  S
C2271      C2277   1.556       .  S
C2271      C3289   1.517   1_545  S
C2271      C2804   1.549       .  S
C2272      H2279   1.083   1_565  S
C2272      C3287   1.373       .  D
C2273      C2274   1.574       .  S
C2273      C3286   1.366       .  D
C2273      C2454   1.531       .  S
C2274      C2278   1.557       .  S
C2274      C2276   1.561       .  S
C2274      H2280   1.102       .  S
C2275      C3285   1.519       .  S
C2275      H2281   1.088       .  S
C2275      C2276   1.340       .  D
C2276      C2814   1.490       .  S
C2277      H2282   1.077       .  S
C2277      C3292   1.382   1_545  D
C2278      C3291   1.384       .  D
C2278      C2418   1.527       .  S
O2283      C2298   1.253       .  A
O2283     Al2291   1.873       .  S
C2284      O2294   1.256       .  A
C2284      O2285   1.262       .  A
C2284      C2817   1.492       .  S
O2285     Al2287   1.931       .  S
O2286      C2288   1.254       .  A
O2286     Al2287   1.858       .  S
Al2287     O2295   1.841       .  S
Al2287     O2297   1.929       .  S
Al2287     O2296   1.790       .  S
C2288      O2301   1.269       .  A
C2288      C2857   1.482       .  S
O2289      C2299   1.255       .  A
O2289     Al2291   1.885       .  S
O2290      C2303   1.256       .  A
O2290     Al2300   1.870       .  S
Al2291     O2304   1.935       .  S
Al2291     O2301   1.945       .  S
Al2291     O2296   1.777       .  S
O2292      C2299   1.263       .  A
O2292     Al2300   1.940       .  S
O2293      C2302   1.267       .  A
O2293     Al2300   1.948       .  S
O2294     Al2300   1.878       .  S
O2295      C2302   1.249       .  A
O2296     Al2300   1.787       .  S
O2297      C2298   1.259       .  A
C2298      C2794   1.489       .  S
C2299      C2837   1.504       .  S
C2302      C2777   1.476       .  S
C2303      O2304   1.266       .  A
C2303      C2784   1.484       .  S
C2305      C2306   1.561       .  S
C2305      C2311   1.528       .  S
C2305      C2309   1.517       .  S
C2305      C2887   1.567       .  S
C2306      H2313   1.063       .  S
C2306      C2307   1.393       .  D
C2307      C2308   1.566       .  S
C2307      C3467   1.565       .  S
C2308      C2312   1.579       .  S
C2308      C2310   1.551       .  S
C2308      H2314   1.100       .  S
C2309      H2315   1.090       .  S
C2309      C2310   1.339       .  D
C2310      C2767   1.477       .  S
C2311      H2316   1.084       .  S
C2311      C2312   1.373       .  D
C2312      C2386   1.536       .  S
C2317      C2318   1.557       .  S
C2317      C2323   1.497       .  S
C2317      C2321   1.527       .  S
C2317      C2874   1.542       .  S
C2318      H2325   1.064       .  S
C2318      C2319   1.388       .  D
C2319      C2320   1.591       .  S
C2319      C2420   1.582       .  S
C2320      C2324   1.606       .  S
C2320      C2322   1.572       .  S
C2320      H2326   1.101       .  S
C2321      H2327   1.085       .  S
C2321      C2322   1.344       .  D
C2322      C2754   1.532       .  S
C2323      H2328   1.085       .  S
C2323      C2324   1.357       .  D
C2329      C2330   1.535       .  S
C2329      C2335   1.536       .  S
C2329      C2333   1.508       .  S
C2329      C2867   1.544       .  S
C2330      H2337   1.081       .  S
C2330      C2331   1.381       .  D
C2331      C2332   1.581       .  S
C2332      C2336   1.577       .  S
C2332      C2334   1.570       .  S
C2332      H2338   1.098       .  S
C2333      H2339   1.090       .  S
C2333      C2334   1.338       .  D
C2334      C2744   1.486       .  S
C2335      H2340   1.076       .  S
C2335      C2336   1.381       .  D
C2336      C3431   1.574       .  S
O2341      C2356   1.256       .  A
C2342      O2352   1.265       .  A
C2342      O2343   1.270       .  A
C2342      C2757   1.513       .  S
O2343     Al2345   1.940       .  S
O2344      C2346   1.249   1_565  A
O2344     Al3359   1.862       .  S
Al2345     O3358   1.877       .  S
Al2345     O2353   1.885       .  S
Al2345     O3369   1.943       .  S
Al2345     O3368   1.779       .  S
C2346      O2359   1.258       .  A
C2346      C2747   1.496       .  S
O2347      C2357   1.257       .  A
O2347     Al2349   1.850       .  S
O2348      C2361   1.268   1_565  A
O2348     Al3372   1.926       .  S
Al2349     O2362   1.874       .  S
O2350      C2357   1.265       .  A
O2350     Al3372   1.946   1_545  S
O2351      C2360   1.268       .  A
O2353      C2360   1.257       .  A
O2354     Al3359   1.774   1_545  S
O2355      C2356   1.270       .  A
O2355     Al3359   1.953   1_545  S
C2356      C2897   1.489       .  S
C2357      C2764   1.486       .  S
Al2358     O3362   1.928       .  S
Al2358     O3364   1.942       .  S
C2360      C2917   1.513       .  S
C2361      O2362   1.258       .  A
C2361      C2937   1.477       .  S
N2363      H2395   1.036       .  S
N2363      C2368   1.371       .  A
N2363      C2367   1.377       .  A
N2364      C2371   1.364       .  A
N2364      C2372   1.364       .  A
N2365      H2396   1.043       .  S
N2365      C2370   1.368       .  A
N2365      C2369   1.363       .  A
N2366      C2373   1.365       .  A
N2366      C2374   1.370       .  A
C2367      C2383   1.457       .  A
C2368      C2384   1.456       .  A
C2368      C2376   1.386       .  A
C2369      C2377   1.382       .  A
C2369      C2386   1.428       .  A
C2370      C2385   1.444       .  A
C2370      C2378   1.391       .  A
C2371      C2383   1.442       .  A
C2371      C2379   1.385       .  A
C2372      C2386   1.429       .  A
C2372      C2380   1.380       .  A
C2373      C2381   1.373       .  A
C2373      C2384   1.434       .  A
C2374      C2382   1.381       .  A
C2374      C2385   1.435       .  A
C2375      H2387   1.075       .  S
C2377      C2378   1.377       .  A
C2377      H2389   1.083       .  S
C2378      H2390   1.081       .  S
C2379      C2380   1.365       .  A
C2379      H2391   1.071       .  S
C2380      H2392   1.073       .  S
C2381      C2382   1.369       .  A
C2381      H2393   1.070       .  S
C2382      H2394   1.077       .  S
N2397      H2429   1.044       .  S
N2397      C2402   1.362       .  A
N2397      C2401   1.361       .  A
N2398      C2405   1.376       .  A
N2398      C2406   1.370       .  A
N2399      H2430   1.044       .  S
N2399      C2404   1.367       .  A
N2399      C2403   1.366       .  A
N2400      C2407   1.359       .  A
N2400      C2408   1.359       .  A
C2401      C3423   1.389       .  A
C2401      C2417   1.438       .  A
C2402      C2418   1.410       .  A
C2402      C2410   1.373       .  A
C2403      C2411   1.391       .  A
C2403      C2420   1.442       .  A
C2404      C2419   1.432       .  A
C2404      C2412   1.381       .  A
C2405      C2417   1.447       .  A
C2405      C2413   1.382       .  A
C2406      C2420   1.438       .  A
C2406      C2414   1.361       .  A
C2407      C2415   1.382       .  A
C2407      C2418   1.422       .  A
C2408      C2416   1.385       .  A
C2408      C2419   1.426       .  A
C2409      C3415   1.387       .  A
C2409      C3424   1.367       .  A
C2409      H2421   1.067   1_565  S
C2410      C3423   1.366       .  A
C2410      H3436   1.083       .  S
C2411      C2412   1.379       .  A
C2411      H2423   1.081       .  S
C2412      H2424   1.083       .  S
C2413      C2414   1.354       .  A
C2413      H2425   1.067       .  S
C2414      H2426   1.066       .  S
C2415      C2416   1.373       .  A
C2415      H2427   1.077       .  S
C2416      H2428   1.073       .  S
C2417      C3350   1.577       .  S
H2422      C3424   1.083       .  S
N2431      H2463   1.044       .  S
N2431      C2436   1.362       .  A
N2431      C2435   1.369       .  A
N2432      C2439   1.365       .  A
N2432      C2440   1.364       .  A
N2433      H2464   1.044       .  S
N2433      C2438   1.366       .  A
N2433      C2437   1.360       .  A
N2434      C2441   1.362       .  A
N2434      C2442   1.367       .  A
C2435      C2443   1.393       .  A
C2435      C2451   1.445       .  A
C2436      C2452   1.430       .  A
C2437      C2445   1.381       .  A
C2437      C2454   1.422       .  A
C2438      C2453   1.434       .  A
C2438      C3460   1.388       .  A
C2439      C2451   1.431       .  A
C2439      C2447   1.371       .  A
C2440      C2454   1.419       .  A
C2440      C2448   1.373       .  A
C2441      C2449   1.368       .  A
C2441      C2452   1.420       .  A
C2442      C2450   1.383       .  A
C2442      C2453   1.434       .  A
C2444      H2456   1.082       .  S
C2445      C3460   1.377       .  A
C2445      H3471   1.083       .  S
C2446      C3452   1.390       .  A
C2446      C3459   1.375       .  A
C2446      H2458   1.081   1_565  S
C2447      C2448   1.349       .  A
C2447      H2459   1.046       .  S
C2448      H2460   1.070       .  S
C2449      C2450   1.375       .  A
C2449      H2461   1.077       .  S
C2450      H2462   1.073       .  S
C2453      C3321   1.569       .  S
H2457      C3459   1.083       .  S
C2465      C2466   1.552       .  S
C2465      C2471   1.520       .  S
C2465      C2469   1.494       .  S
C2465      C2957   1.542       .  S
C2466      H2473   1.077       .  S
C2466      C2467   1.387       .  D
C2467      C2468   1.597       .  S
C2467      C2604   1.585       .  S
C2468      C2472   1.595       .  S
C2468      C2470   1.601       .  S
C2468      H2474   1.107       .  S
C2469      H2475   1.091       .  S
C2469      C2470   1.337       .  D
C2470      C2734   1.510       .  S
C2471      H2476   1.079       .  S
C2471      C2472   1.368       .  D
C2472      C3684   1.571       .  S
C2477      C2478   1.556       .  S
C2477      C2483   1.532       .  S
C2477      C2481   1.497       .  S
C2477      C2967   1.554       .  S
C2478      H2485   1.078       .  S
C2478      C2479   1.390       .  D
C2479      C2480   1.586       .  S
C2480      C2484   1.583       .  S
C2480      C2482   1.591       .  S
C2480      H2486   1.102       .  S
C2481      H2487   1.091       .  S
C2481      C2482   1.341       .  D
C2482      C2724   1.497       .  S
C2483      H2488   1.081       .  S
C2483      C2484   1.375       .  D
C2484      C2638   1.574       .  S
C2489      C2490   1.558       .  S
C2489      C2495   1.517       .  S
C2489      C2493   1.501       .  S
C2489      C2974   1.546       .  S
C2490      H2497   1.079       .  S
C2490      C2491   1.389       .  D
C2491      C2492   1.593       .  S
C2491      C3651   1.590       .  S
C2492      C2496   1.596       .  S
C2492      C2494   1.591       .  S
C2492      H2498   1.108       .  S
C2493      H2499   1.089       .  S
C2493      C2494   1.343       .  D
C2494      C2714   1.513       .  S
C2495      H2500   1.083       .  S
C2495      C2496   1.364       .  D
O2501      C3530   1.257       .  A
O2501     Al2509   1.889   1_565  S
C2502      O3526   1.255       .  A
C2502      O2503   1.262       .  A
C2502      C2737   1.516       .  S
O2503     Al2505   1.932       .  S
O2504     Al2505   1.905       .  S
Al2505     O2513   1.908       .  S
Al2505     O2515   1.933       .  S
Al2505     O3528   1.782       .  S
C2506      O3533   1.263       .  A
C2506      C2717   1.519       .  S
O2507      C2517   1.260       .  A
O2507     Al2509   1.887       .  S
O2508     Al2518   1.920       .  S
Al2509     O2522   1.901       .  S
Al2509     O2519   1.928   1_545  S
O2510     Al2518   1.937   1_455  S
O2511      C3534   1.264       .  A
O2511     Al2518   1.934   1_565  S
O2512      C3516   1.260   1_545  A
O2512     Al2518   1.900       .  S
O2513      C2520   1.261       .  A
O2514     Al3519   1.779       .  S
O2514     Al2518   1.787   1_565  S
C2516      O3515   1.261       .  A
C2516      C3027   1.519       .  S
C2517      C2727   1.498       .  S
O2519      C3520   1.262       .  A
C2520      O3525   1.269       .  A
C2520      C3007   1.525       .  S
C2521      O2522   1.263       .  A
C2521      C2987   1.492       .  S
C2523      C2524   1.533       .  S
C2523      C2529   1.549       .  S
C2523      C2527   1.493       .  S
C2523      C3788   1.548   1_545  S
C2524      H3545   1.078   1_545  S
C2524      C2525   1.379       .  D
C2525      C2526   1.588       .  S
C2525      C2636   1.584       .  S
C2526      C2530   1.601       .  S
C2526      C2528   1.600       .  S
C2526      H2532   1.104       .  S
C2527      H2533   1.091       .  S
C2527      C2528   1.339       .  D
C2528      C2704   1.505       .  S
C2529      H3548   1.077   1_545  S
C2529      C2530   1.381       .  D
C2530      C2671   1.589       .  S
H2531      C3538   1.078       .  S
H2534      C3543   1.078       .  S
C2535      C2536   1.531   1_455  S
C2535      C2541   1.554   1_455  S
C2535      C2539   1.498   1_455  S
C2536      C2537   1.378       .  D
C2537      C2538   1.584       .  S
C2537      C2672   1.568       .  S
C2538      C2542   1.581       .  S
C2538      C2540   1.591       .  S
C2538      H2544   1.105       .  S
C2539      H2545   1.091       .  S
C2539      C2540   1.339       .  D
C2540      C2694   1.501       .  S
C2541      C2542   1.380       .  D
C2542      C2602   1.569       .  S
C2547      C2548   1.505       .  S
C2547      C2553   1.568       .  S
C2547      C2551   1.498       .  S
C2547      C2787   1.548       .  S
C2548      H2555   1.083       .  S
C2548      C2549   1.364       .  D
C2549      C2550   1.598       .  S
C2549      C2603   1.553       .  S
C2550      C2554   1.579       .  S
C2550      C2552   1.589       .  S
C2550      H2556   1.106       .  S
C2551      H2557   1.089       .  S
C2551      C2552   1.341       .  D
C2552      C2684   1.519       .  S
C2553      H2558   1.077       .  S
C2553      C2554   1.393       .  D
C2554      C2635   1.581       .  S
O2559      C2574   1.256       .  A
O2559     Al2567   1.864       .  S
C2560      O2570   1.251       .  A
C2560      O2561   1.270       .  A
C2560      C2687   1.489       .  S
O2561     Al2563   1.948       .  S
O2562      C2564   1.249       .  A
O2562     Al2563   1.865       .  S
Al2563     O2571   1.878       .  S
Al2563     O2573   1.938       .  S
Al2563     O2572   1.785       .  S
C2564      O2577   1.263       .  A
C2564      C2697   1.512       .  S
O2565      C2575   1.255       .  A
O2565     Al2567   1.865       .  S
O2566      C2579   1.252       .  A
O2566     Al2576   1.864       .  S
Al2567     O2580   1.952       .  S
Al2567     O2577   1.947       .  S
Al2567     O2572   1.786       .  S
O2568      C2575   1.266       .  A
O2568     Al2576   1.947       .  S
O2569      C2578   1.263       .  A
O2569     Al2576   1.948       .  S
O2570     Al2576   1.863       .  S
O2571      C2578   1.252       .  A
O2572     Al2576   1.798       .  S
O2573      C2574   1.267       .  A
C2574      C2847   1.476       .  S
C2575      C2707   1.500       .  S
C2578      C2827   1.513       .  S
C2579      O2580   1.267       .  A
C2579      C2807   1.492       .  S
N2581      H2613   1.025       .  S
N2581      C2586   1.376       .  A
N2581      C2585   1.371       .  A
N2582      C2589   1.366       .  A
N2582      C2590   1.371       .  A
N2583      H2614   1.026       .  S
N2583      C2588   1.369       .  A
N2583      C2587   1.378       .  A
N2584      C2591   1.370       .  A
N2584      C2592   1.366       .  A
C2585      C2593   1.390   1_655  A
C2585      C2601   1.462       .  A
C2586      C2602   1.460       .  A
C2586      C2594   1.387       .  A
C2587      C2595   1.385       .  A
C2587      C2604   1.463       .  A
C2588      C2603   1.455       .  A
C2588      C2596   1.384       .  A
C2589      C2601   1.434       .  A
C2589      C2597   1.376       .  A
C2590      C2604   1.436       .  A
C2590      C2598   1.374       .  A
C2591      C2599   1.382       .  A
C2591      C2602   1.439       .  A
C2592      C2600   1.377       .  A
C2592      C2603   1.434       .  A
C2593      C2594   1.375   1_455  A
C2594      H2606   1.079   1_655  S
C2595      C2596   1.369       .  A
C2595      H2607   1.072       .  S
C2596      H2608   1.082       .  S
C2597      C2598   1.364       .  A
C2597      H2609   1.073       .  S
C2598      H2610   1.071       .  S
C2599      C2600   1.370       .  A
C2599      H2611   1.075       .  S
C2600      H2612   1.076       .  S
N2615      H2647   1.041       .  S
N2615      C2620   1.380       .  A
N2615      C2619   1.374       .  A
N2616      C2623   1.373       .  A
N2616      C2624   1.372       .  A
N2617      H2648   1.039       .  S
N2617      C2622   1.374       .  A
N2617      C2621   1.376       .  A
N2618      C2625   1.374       .  A
N2618      C2626   1.372       .  A
C2619      C2627   1.369       .  A
C2619      C2635   1.447       .  A
C2620      C2636   1.446       .  A
C2620      C2628   1.375       .  A
C2621      C2629   1.382       .  A
C2621      C2638   1.451       .  A
C2622      C2637   1.452       .  A
C2622      C2630   1.383       .  A
C2623      C2635   1.451       .  A
C2623      C2631   1.384       .  A
C2624      C2638   1.455       .  A
C2624      C2632   1.385       .  A
C2625      C2633   1.381       .  A
C2625      C2636   1.451       .  A
C2626      C2634   1.384   1_545  A
C2626      C2637   1.455       .  A
C2627      C2628   1.357       .  A
C2627      H2639   1.057       .  S
C2628      H2640   1.068       .  S
C2629      C2630   1.365       .  A
C2629      H2641   1.071       .  S
C2630      H2642   1.071       .  S
C2631      C2632   1.365       .  A
C2631      H2643   1.076       .  S
C2632      H2644   1.081       .  S
C2633      C2634   1.362   1_545  A
C2633      H2645   1.081   1_545  S
C2634      H3660   1.075       .  S
C2637      C3505   1.571   1_545  S
H2646      C3648   1.074       .  S
N2649      H2681   1.043       .  S
N2649      C2654   1.367       .  A
N2649      C2653   1.371       .  A
N2650      C2657   1.376       .  A
N2650      C2658   1.372       .  A
N2651      H2682   1.040       .  S
N2651      C2656   1.375       .  A
N2651      C2655   1.372       .  A
N2652      C2659   1.375       .  A
N2652      C2660   1.378       .  A
C2653      C2661   1.377       .  A
C2653      C2669   1.435       .  A
C2654      C2670   1.429       .  A
C2654      C2662   1.375       .  A
C2655      C2663   1.384       .  A
C2655      C2672   1.449       .  A
C2656      C2671   1.445       .  A
C2656      C2664   1.379       .  A
C2657      C2669   1.450       .  A
C2657      C2665   1.381   1_655  A
C2658      C2672   1.455       .  A
C2658      C2666   1.384       .  A
C2659      C2667   1.381   1_545  A
C2659      C2670   1.453       .  A
C2660      C2668   1.387   1_545  A
C2660      C2671   1.467       .  A
C2661      C2662   1.367       .  A
C2661      H2673   1.072       .  S
C2662      H2674   1.072       .  S
C2663      C2664   1.362       .  A
C2663      H2675   1.069       .  S
C2664      H2676   1.073       .  S
C2665      C2666   1.364   1_455  A
C2666      H2678   1.081       .  S
C2667      C2668   1.369       .  A
C2667      H3693   1.082       .  S
C2668      H2680   1.072       .  S
C2670      C3486   1.560   1_545  S
H2679      C3681   1.082       .  S
C2683      C2684   1.398       .  A
C2683      C2688   1.412       .  A
C2683     Br2690   1.927       .  S
C2684      C2685   1.430       .  A
C2685      C2686   1.406       .  A
C2685     Br2692   1.933       .  S
C2686      C2687   1.400       .  A
C2686     Br2691   1.929       .  S
C2687      C2688   1.421       .  A
C2688     Br2689   1.894       .  S
C2693      C2694   1.422       .  A
C2693      C2698   1.414       .  A
C2693     Br2700   1.941       .  S
C2694      C2695   1.423       .  A
C2695      C2696   1.418       .  A
C2695     Br2702   1.933       .  S
C2696      C2697   1.417       .  A
C2696     Br2701   1.931       .  S
C2697      C2698   1.420       .  A
C2698     Br2699   1.938       .  S
C2703      C2704   1.425       .  A
C2703      C2708   1.411       .  A
C2703     Br2710   1.931       .  S
C2704      C2705   1.429       .  A
C2705      C2706   1.418       .  A
C2705     Br2712   1.931       .  S
C2706      C2707   1.415       .  A
C2706     Br2711   1.932       .  S
C2707      C2708   1.408       .  A
C2708     Br2709   1.937       .  S
C2713      C2714   1.421       .  A
C2713      C2718   1.424       .  A
C2713     Br2720   1.929       .  S
C2714      C2715   1.387       .  A
C2715      C2716   1.400       .  A
C2716      C2717   1.416       .  A
C2717      C2718   1.423       .  A
C2718     Br2719   1.928       .  S
C2723      C2724   1.429       .  A
C2723      C2728   1.417       .  A
C2723     Br2730   1.935       .  S
C2724      C2725   1.421       .  A
C2725      C2726   1.408       .  A
C2725     Br2732   1.928       .  S
C2726      C2727   1.403       .  A
C2726     Br2731   1.931       .  S
C2727      C2728   1.408       .  A
C2728     Br2729   1.936       .  S
C2733      C2734   1.424       .  A
C2733      C2738   1.416       .  A
C2733     Br3754   1.933       .  S
C2734      C2735   1.430       .  A
C2735      C2736   1.421       .  A
C2735     Br2742   1.938       .  S
C2736      C2737   1.412       .  A
C2736     Br2741   1.939       .  S
C2737      C2738   1.413       .  A
C2738     Br3753   1.931       .  S
Br2739     C3752   1.910   1_545  S
Br2740     C3747   1.902   1_545  S
C2743      C2744   1.420       .  A
C2743      C2748   1.408       .  A
C2743     Br2750   1.935   1_545  S
C2744      C2745   1.422       .  A
C2745      C2746   1.408       .  A
C2745     Br2752   1.939       .  S
C2746      C2747   1.415       .  A
C2747      C2748   1.418       .  A
C2748     Br3763   1.943   1_545  S
Br2749     C3762   1.942       .  S
C2753      C2754   1.436       .  A
C2753      C2758   1.416       .  A
C2753     Br2760   1.939       .  S
C2754      C2755   1.409       .  A
C2755      C2756   1.413       .  A
C2755     Br2762   1.935       .  S
C2756      C2757   1.420       .  A
C2756     Br2761   1.891       .  S
C2757      C2758   1.405       .  A
C2758     Br2759   1.929       .  S
C2763      C2764   1.416       .  A
C2763      C2768   1.402       .  A
C2763     Br2770   1.938       .  S
C2764      C2765   1.417       .  A
C2765      C2766   1.407       .  A
C2765     Br3786   1.932   1_545  S
C2766      C2767   1.414       .  A
C2766     Br2771   1.936       .  S
C2767      C2768   1.410       .  A
C2768     Br2769   1.932       .  S
Br2772     C3779   1.930       .  S
C2773      C2774   1.403       .  A
C2773      C2778   1.406       .  A
C2773     Br2780   1.923       .  S
C2774      C3537   1.538       .  S
C2774      C2775   1.424       .  A
C2775      C2776   1.401       .  A
C2775     Br2782   1.935       .  S
C2776      C2777   1.414       .  A
C2776     Br2781   1.941       .  S
C2777      C2778   1.413       .  A
C2778     Br2779   1.919       .  S
C2783      C2784   1.415       .  A
C2783      C2788   1.413       .  A
C2783     Br2790   1.918       .  S
C2784      C2785   1.406       .  A
C2785      C2786   1.403       .  A
C2785     Br2792   1.938       .  S
C2786      C2787   1.433       .  A
C2786     Br2791   1.945       .  S
C2787      C2788   1.410       .  A
C2788     Br2789   1.930       .  S
C2793      C2794   1.408       .  A
C2793      C2798   1.402       .  A
C2793     Br2800   1.937       .  S
C2794      C2795   1.420       .  A
C2795      C2796   1.414       .  A
C2795     Br2802   1.914       .  S
C2796      C2797   1.408       .  A
C2796     Br2801   1.931       .  S
C2797      C2798   1.426       .  A
C2798     Br2799   1.931       .  S
C2803      C2804   1.408       .  A
C2803      C2808   1.413       .  A
C2803     Br2810   1.925       .  S
C2804      C2805   1.426       .  A
C2805      C2806   1.408       .  A
C2805     Br2812   1.932       .  S
C2806      C2807   1.414       .  A
C2806     Br2811   1.940       .  S
C2807      C2808   1.417       .  A
C2808     Br2809   1.923       .  S
C2813      C2814   1.419       .  A
C2813      C2818   1.408       .  A
C2813     Br2820   1.932       .  S
C2814      C2815   1.417       .  A
C2815      C2816   1.412       .  A
C2815     Br2822   1.935       .  S
C2816      C2817   1.414       .  A
C2816     Br2821   1.928       .  S
C2817      C2818   1.407       .  A
C2818     Br2819   1.935       .  S
C2823      C2824   1.410       .  A
C2823      C2828   1.415       .  A
C2823     Br2830   1.928       .  S
C2824      C2825   1.428       .  A
C2825      C2826   1.417       .  A
C2825     Br2832   1.929       .  S
C2826      C2827   1.419       .  A
C2826     Br2831   1.936       .  S
C2827      C2828   1.421       .  A
C2828     Br2829   1.914       .  S
C2833      C2834   1.415       .  A
C2833      C2838   1.411       .  A
C2833     Br2840   1.937       .  S
C2834      C2835   1.415       .  A
C2835      C2836   1.412       .  A
C2835     Br2842   1.933       .  S
C2836      C2837   1.412       .  A
C2836     Br2841   1.933       .  S
C2837      C2838   1.416       .  A
C2838     Br2839   1.916       .  S
C2843      C2844   1.413       .  A
C2843      C2848   1.416       .  A
C2843     Br2850   1.929       .  S
C2844      C2845   1.429       .  A
C2845      C2846   1.400       .  A
C2845     Br2852   1.940       .  S
C2846      C2847   1.403       .  A
C2846     Br2851   1.937       .  S
C2847      C2848   1.412       .  A
C2848     Br2849   1.919       .  S
C2853      C2854   1.419       .  A
C2853      C2858   1.410       .  A
C2853     Br2860   1.932       .  S
C2854      C2855   1.387       .  A
C2855      C2856   1.390       .  A
C2855     Br2862   1.919       .  S
C2856      C2857   1.408       .  A
C2856     Br2861   1.896       .  S
C2857      C2858   1.415       .  A
C2858     Br2859   1.929       .  S
C2863      C2864   1.426       .  A
C2863      C2868   1.413       .  A
C2863     Br2870   1.923       .  S
C2864      C2865   1.423       .  A
C2865      C2866   1.402       .  A
C2865     Br2872   1.949       .  S
C2866      C2867   1.421       .  A
C2866     Br2871   1.933       .  S
C2867      C2868   1.404       .  A
C2868     Br2869   1.928       .  S
C2873      C2874   1.417       .  A
C2873      C2878   1.406       .  A
C2873     Br2880   1.933       .  S
C2874      C2875   1.399       .  A
C2875      C2876   1.412       .  A
C2875     Br2882   1.928       .  S
C2876      C2877   1.427       .  A
C2876     Br2881   1.916       .  S
C2877      C2878   1.423       .  A
C2878     Br2879   1.939       .  S
C2883      C2884   1.422       .  A
C2883      C2888   1.415       .  A
C2883     Br2890   1.942       .  S
C2884      C2885   1.433       .  A
C2885      C2886   1.422       .  A
C2885     Br2892   1.930       .  S
C2886      C2887   1.411       .  A
C2886     Br2891   1.930       .  S
C2887      C2888   1.431       .  A
C2888     Br2889   1.936       .  S
C2893      C2894   1.433       .  A
C2893      C2898   1.405       .  A
C2893     Br2900   1.935       .  S
C2894      C2895   1.413       .  A
C2895      C2896   1.418       .  A
C2895     Br2902   1.928   1_554  S
C2896      C2897   1.412       .  A
C2896     Br3915   1.904   1_545  S
C2897      C2898   1.403       .  A
C2898     Br2899   1.936       .  S
Br2901     C3910   1.906       .  S
C2903      C2904   1.409       .  A
C2903      C2908   1.409       .  A
C2903     Br2910   1.930       .  S
C2904      C2905   1.420       .  A
C2905      C2906   1.406       .  A
C2905     Br2912   1.939       .  S
C2906      C2907   1.416       .  A
C2906     Br2911   1.941       .  S
C2907      C2908   1.413       .  A
C2908     Br2909   1.919       .  S
C2913      C2914   1.423       .  A
C2913      C2918   1.410       .  A
C2913     Br2920   1.929       .  S
C2914      C2915   1.420       .  A
C2915      C2916   1.425       .  A
C2915     Br2922   1.924   1_654  S
C2916      C2917   1.423       .  A
C2917      C2918   1.416       .  A
C2918     Br2919   1.935       .  S
C2923      C2924   1.417       .  A
C2923      C2928   1.417       .  A
C2923     Br2930   1.931       .  S
C2924      C2925   1.410       .  A
C2925      C2926   1.415       .  A
C2925     Br2932   1.928       .  S
C2926      C2927   1.415       .  A
C2926     Br2931   1.929       .  S
C2927      C2928   1.421       .  A
C2928     Br2929   1.934       .  S
C2933      C2934   1.420       .  A
C2933      C2938   1.395       .  A
C2933     Br2940   1.942       .  S
C2934      C2935   1.407       .  A
C2935      C2936   1.412       .  A
C2935     Br2942   1.925   1_554  S
C2936      C2937   1.414       .  A
C2936     Br3955   1.920       .  S
C2937      C2938   1.413       .  A
C2938     Br2939   1.939       .  S
Br2941     C3950   1.918       .  S
C2943      C2944   1.418       .  A
C2943      C2948   1.408       .  A
C2943     Br2950   1.933       .  S
C2944      C2945   1.389       .  A
C2945      C2946   1.412       .  A
C2945     Br2952   1.927       .  S
C2946      C2947   1.425       .  A
C2946     Br2951   1.888       .  S
C2947      C2948   1.418       .  A
C2948     Br2949   1.932       .  S
C2953      C2954   1.429       .  A
C2953      C2958   1.410       .  A
C2953     Br2960   1.925       .  S
C2954      C2955   1.417       .  A
C2955      C2956   1.403       .  A
C2955     Br2962   1.940       .  S
C2956      C2957   1.425       .  A
C2956     Br2961   1.934       .  S
C2957      C2958   1.399       .  A
C2958     Br2959   1.927       .  S
C2963      C2964   1.419       .  A
C2963      C2968   1.402       .  A
C2963     Br2970   1.946       .  S
C2964      C2965   1.423       .  A
C2965      C2966   1.418       .  A
C2965     Br2972   1.930       .  S
C2966      C2967   1.411       .  A
C2966     Br2971   1.926       .  S
C2967      C2968   1.425       .  A
C2968     Br2969   1.937       .  S
C2973      C2974   1.427       .  A
C2973      C2978   1.404       .  A
C2973     Br2980   1.943       .  S
C2974      C2975   1.409       .  A
C2975      C2976   1.413       .  A
C2975     Br2982   1.930       .  S
C2976      C2977   1.423       .  A
C2976     Br2981   1.925       .  S
C2977      C2978   1.414       .  A
C2978     Br2979   1.937       .  S
C2983      C2984   1.419       .  A
C2983      C2988   1.396       .  A
C2983     Br2990   1.928       .  S
C2984      C2985   1.413       .  A
C2985      C2986   1.420       .  A
C2985     Br2992   1.927       .  S
C2986      C2987   1.418       .  A
C2987      C2988   1.409       .  A
C2988     Br2989   1.935       .  S
C2993      C2994   1.421       .  A
C2993      C2998   1.405       .  A
C2993     Br3000   1.943       .  S
C2994      C2995   1.423       .  A
C2995      C2996   1.405       .  A
C2995     Br3002   1.933       .  S
C2996      C2997   1.406       .  A
C2996     Br3001   1.935       .  S
C2997      C2998   1.417       .  A
C2998     Br2999   1.937       .  S
C3003      C3004   1.416       .  A
C3003      C3008   1.423       .  A
C3003     Br3010   1.929       .  S
C3004      C3005   1.424       .  A
C3005      C3006   1.414       .  A
C3005     Br3012   1.930       .  S
C3006      C3007   1.422       .  A
C3006     Br3011   1.935       .  S
C3007      C3008   1.430       .  A
C3008     Br3009   1.931       .  S
C3013      C3014   1.414       .  A
C3013      C3018   1.415       .  A
C3013     Br3020   1.935       .  S
C3014      C3015   1.416       .  A
C3015      C3016   1.413       .  A
C3015     Br3022   1.929       .  S
C3016      C3017   1.414       .  A
C3016     Br3021   1.930       .  S
C3017      C3018   1.423       .  A
C3018     Br3019   1.937       .  S
C3023      C3024   1.406       .  A
C3023      C3028   1.420       .  A
C3023     Br3030   1.930       .  S
C3024      C3025   1.423       .  A
C3025      C3026   1.414       .  A
C3025     Br3032   1.935       .  S
C3026      C3027   1.422       .  A
C3027      C3028   1.431       .  A
C3028     Br4043   1.926       .  S
Br3029     C4042   1.934   1_545  S
C3033      C3034   1.402       .  A
C3033      C3038   1.398       .  A
C3033     Br3040   1.930       .  S
C3034      C3035   1.420       .  A
C3035      C3036   1.413       .  A
C3035     Br3042   1.906       .  S
C3036      C3037   1.407       .  A
C3036     Br3041   1.931       .  S
C3037      C3038   1.424       .  A
C3038     Br3039   1.936       .  S
C3043      C3044   1.570       .  S
C3043      C3049   1.527       .  S
C3043      C3047   1.514       .  S
C3043      C4038   1.562       .  S
C3044      H3051   1.078       .  S
C3044      C3045   1.383       .  D
C3045      C3046   1.568       .  S
C3045      C3123   1.561       .  S
C3046      C3050   1.591       .  S
C3046      C3048   1.569       .  S
C3046      H3052   1.106       .  S
C3047      H3053   1.088       .  S
C3047      C3048   1.348       .  D
C3048      C4051   1.513       .  S
C3049      H3054   1.086       .  S
C3049      C3050   1.372       .  D
C3050      C3213   1.534       .  S
C3055      C3056   1.550       .  S
C3055      C3061   1.525       .  S
C3055      C3059   1.517       .  S
C3055      C4018   1.546       .  S
C3056      H3063   1.071       .  S
C3056      C3057   1.387       .  D
C3057      C3058   1.589       .  S
C3057      C3249   1.572       .  S
C3058      C3062   1.572       .  S
C3058      C3060   1.553       .  S
C3058      H3064   1.100       .  S
C3059      H3065   1.088       .  S
C3059      C3060   1.340       .  D
C3060      C4031   1.479       .  S
C3061      H3066   1.082       .  S
C3061      C3062   1.370       .  D
C3062      C3122   1.532       .  S
C3067      C3068   1.557       .  S
C3067      C3073   1.519       .  S
C3067      C3071   1.490       .  S
C3067      C3998   1.544       .  S
C3068      H3075   1.078       .  S
C3068      C3069   1.387       .  D
C3069      C3070   1.583       .  S
C3069      C3216   1.569       .  S
C3070      C3074   1.582       .  S
C3070      C3072   1.583       .  S
C3070      H3076   1.104       .  S
C3071      H3077   1.091       .  S
C3071      C3072   1.340       .  D
C3072      C4008   1.485       .  S
C3073      H3078   1.078       .  S
C3073      C3074   1.374       .  D
C3074      C3248   1.565       .  S
O3079      C3094   1.249       .  A
O3079     Al3087   1.869       .  S
C3080      O3090   1.253       .  A
C3080      O3081   1.254       .  A
C3080      C4011   1.486       .  S
O3081     Al3083   1.910       .  S
O3082      C3084   1.261       .  A
O3082     Al3083   1.894       .  S
Al3083     O3091   1.898       .  S
Al3083     O3093   1.913       .  S
Al3083     O3092   1.784       .  S
C3084      O3097   1.269       .  A
C3084      C4048   1.479       .  S
O3085      C3095   1.248       .  A
O3085     Al3087   1.845       .  S
O3086      C3099   1.252       .  A
O3086     Al3096   1.868       .  S
Al3087     O3100   1.884       .  S
Al3087     O3097   1.923       .  S
Al3087     O3092   1.774       .  S
O3088      C3095   1.265       .  A
O3088     Al3096   1.933       .  S
O3089      C3098   1.274       .  A
O3089     Al3096   1.920       .  S
O3090     Al3096   1.875       .  S
O3091      C3098   1.264       .  A
O3092     Al3096   1.765       .  S
O3093      C3094   1.260       .  A
C3094      C3991   1.494       .  S
C3095      C4028   1.500       .  S
C3098      C3978   1.491       .  S
C3099      O3100   1.257       .  A
C3099      C3968   1.478       .  S
N3101      H3133   1.045       .  S
N3101      C3105   1.358       .  A
N3102      C3109   1.376       .  A
N3102      C3110   1.377       .  A
N3103      H3134   1.044       .  S
N3103      C3107   1.369       .  A
N3104      C3111   1.365       .  A
N3104      C3112   1.360       .  A
C3105      C3113   1.393       .  A
C3105      C3121   1.436       .  A
C3106      C3122   1.415       .  A
C3106      C3114   1.378       .  A
C3107      C3115   1.392       .  A
C3107      C3124   1.447       .  A
C3108      C3123   1.453       .  A
C3108      C3116   1.386       .  A
C3109      C3121   1.441       .  A
C3109      C3117   1.370   1_556  A
C3110      C3124   1.442       .  A
C3110      C3118   1.360   1_556  A
C3111      C3119   1.377       .  A
C3111      C3122   1.423       .  A
C3112      C3120   1.376       .  A
C3112      C3123   1.435       .  A
C3113      H3125   1.081   1_556  S
C3114      H3126   1.083       .  S
C3115      H3127   1.076       .  S
C3116      H3128   1.076       .  S
C3117      C3118   1.338       .  A
C3117      H3129   1.057       .  S
C3118      H3130   1.050       .  S
C3119      C3120   1.370       .  A
C3119      H3131   1.075       .  S
C3120      H3132   1.060       .  S
C3121      C3166   1.572       .  S
C3124      C3137   1.595       .  S
C3135      C3136   1.561       .  S
C3135      C3141   1.489       .  S
C3135      C3139   1.506       .  S
C3135      C3948   1.533       .  S
C3136      H3143   1.059   1_554  S
C3136      C3137   1.391   1_554  D
C3137      C3138   1.594   1_556  S
C3138      C3142   1.603   1_554  S
C3138      C3140   1.584       .  S
C3138      H3144   1.106   1_554  S
C3139      H3145   1.087       .  S
C3139      C3140   1.346       .  D
C3140      C3958   1.520       .  S
C3141      H3146   1.083       .  S
C3141      C3142   1.351   1_554  D
C3142      C3247   1.543       .  S
C3147      C3148   1.531   1_554  S
C3147      C3153   1.545   1_554  S
C3147      C3151   1.516       .  S
C3147      C3928   1.551       .  S
C3148      H3155   1.079       .  S
C3148      C3149   1.370       .  D
C3149      C3150   1.597   1_556  S
C3149      C3250   1.541       .  S
C3150      C3154   1.586   1_554  S
C3150      C3152   1.559       .  S
C3150      H3156   1.102       .  S
C3151      H3157   1.087       .  S
C3151      C3152   1.333       .  D
C3152      C3941   1.495       .  S
C3153      H3158   1.076       .  S
C3153      C3154   1.390       .  D
C3154      C3214   1.566       .  S
C3159      C3160   1.511       .  S
C3159      C3165   1.554   1_554  S
C3159      C3163   1.501       .  S
C3159      C3908   1.540       .  S
C3160      H3167   1.082       .  S
C3160      C3161   1.370   1_554  D
C3161      C3162   1.584       .  S
C3161      C3215   1.555       .  S
C3162      C3166   1.583       .  S
C3162      C3164   1.565   1_556  S
C3162      H3168   1.094       .  S
C3163      H3169   1.090       .  S
C3163      C3164   1.337       .  D
C3164      C3918   1.480       .  S
C3165      H3170   1.061       .  S
C3165      C3166   1.389       .  D
O3171      C3186   1.259       .  A
O3171     Al3179   1.919       .  S
C3172      O3182   1.264       .  A
C3172      O3173   1.259       .  A
C3172      C3961   1.512       .  S
O3173     Al3175   1.905       .  S
O3174      C3176   1.257       .  A
O3174     Al3175   1.859       .  S
Al3175     O3183   1.919       .  S
Al3175     O3185   1.875       .  S
Al3175     O3184   1.781       .  S
C3176      O3189   1.272       .  A
C3176      C3921   1.491       .  S
O3177      C3187   1.262       .  A
O3177     Al3179   1.911       .  S
O3178      C3191   1.262       .  A
O3178     Al3188   1.895       .  S
Al3179     O3192   1.912       .  S
Al3179     O3189   1.954       .  S
Al3179     O3184   1.771       .  S
O3180      C3187   1.262       .  A
O3180     Al3188   1.935       .  S
O3181      C3190   1.277       .  A
O3181     Al3188   1.965       .  S
O3182     Al3188   1.944       .  S
O3183      C3190   1.263       .  A
O3184     Al3188   1.770       .  S
O3185      C3186   1.250       .  A
C3186      C3878   1.501       .  S
C3187      C3938   1.513       .  S
C3190      C3898   1.530       .  S
C3191      O3192   1.265       .  A
C3191      C3891   1.506       .  S
N3193      H3225   1.044       .  S
N3193      C3198   1.361       .  A
N3194      C3201   1.363       .  A
N3194      C3202   1.365       .  A
N3195      H3226   1.039       .  S
N3195      C3200   1.366       .  A
N3196      C3203   1.369       .  A
N3196      C3204   1.360       .  A
C3197      C3205   1.383       .  A
C3197      C3213   1.426       .  A
C3198      C3214   1.439       .  A
C3198      C3206   1.391   1_655  A
C3199      C3207   1.384       .  A
C3199      C3216   1.453       .  A
C3200      C3215   1.460       .  A
C3200      C3208   1.392       .  A
C3201      C3213   1.425       .  A
C3201      C3209   1.374       .  A
C3202      C3216   1.429       .  A
C3202      C3210   1.377       .  A
C3203      C3211   1.384       .  A
C3203      C3214   1.439       .  A
C3204      C3212   1.388       .  A
C3204      C3215   1.439       .  A
C3205      H3217   1.082       .  S
C3206      H3218   1.081   1_456  S
C3207      H3219   1.077       .  S
C3208      H3220   1.081       .  S
C3209      C3210   1.368       .  A
C3209      H3221   1.070       .  S
C3210      H3222   1.072       .  S
C3211      C3212   1.387       .  A
C3211      H3223   1.080       .  S
C3212      H3224   1.079       .  S
N3227      H3259   1.037       .  S
N3227      C3232   1.373       .  A
N3227      C3231   1.374       .  A
N3228      C3235   1.353       .  A
N3228      C3236   1.357       .  A
N3229      H3260   1.044       .  S
N3229      C3234   1.368       .  A
N3229      C3233   1.372       .  A
N3230      C3237   1.369       .  A
N3230      C3238   1.367       .  A
C3231      C3239   1.387       .  A
C3231      C3247   1.457       .  A
C3232      C3248   1.454       .  A
C3232      C3240   1.384       .  A
C3233      C3241   1.381       .  A
C3233      C3250   1.440       .  A
C3234      C3249   1.452       .  A
C3234      C3242   1.392       .  A
C3235      C3247   1.414       .  A
C3235      C3243   1.378   1_556  A
C3236      C3250   1.412       .  A
C3236      C3244   1.380   1_556  A
C3237      C3245   1.382       .  A
C3237      C3248   1.441       .  A
C3238      C3246   1.384       .  A
C3238      C3249   1.440       .  A
C3239      C3240   1.361       .  A
C3239      H3251   1.080       .  S
C3240      H3252   1.082       .  S
C3241      C3242   1.381       .  A
C3241      H3253   1.083       .  S
C3242      H3254   1.082       .  S
C3243      C3244   1.370       .  A
C3243      H3255   1.078       .  S
C3244      H3256   1.075       .  S
C3245      C3246   1.365       .  A
C3245      H3257   1.072       .  S
C3246      H3258   1.075       .  S
C3261      C3262   1.496   1_655  S
C3261      C3267   1.560       .  S
C3261      C3858   1.539       .  S
C3262      H3269   1.087   1_455  S
C3263      C3264   1.593       .  S
C3263      C3398   1.553       .  S
C3264      C3268   1.590       .  S
C3264      C3266   1.569       .  S
C3264      H3270   1.107       .  S
C3265      H3271   1.088       .  S
C3265      C3266   1.346       .  D
C3266      C3868   1.502       .  S
C3267      H3272   1.065       .  S
C3268      C3465   1.583       .  S
C3273      C3274   1.537       .  S
C3273      C3279   1.554       .  S
C3273      C3277   1.513       .  S
C3273      C3838   1.563       .  S
C3274      H3281   1.082       .  S
C3274      C3275   1.381       .  D
C3275      C3276   1.571       .  S
C3275      C3433   1.534       .  S
C3276      C3280   1.586       .  S
C3276      C3278   1.552       .  S
C3276      H3282   1.101       .  S
C3277      H3283   1.089       .  S
C3277      C3278   1.339       .  D
C3278      C3848   1.478       .  S
C3279      H3284   1.071       .  S
C3279      C3280   1.386       .  D
C3280      C3399   1.577       .  S
C3285      C3286   1.525       .  S
C3285      C3291   1.550       .  S
C3285      C3818   1.544       .  S
C3286      H3293   1.081       .  S
C3287      C3288   1.575       .  S
C3287      C3468   1.535       .  S
C3288      C3292   1.556       .  S
C3288      C3290   1.560       .  S
C3288      H3294   1.103       .  S
C3289      H3295   1.090   1_565  S
C3289      C3290   1.339       .  D
C3290      C3828   1.485       .  S
C3291      H3296   1.077       .  S
C3292      C3432   1.535       .  S
O3297      C3312   1.253       .  A
O3297     Al3305   1.870       .  S
C3298      O3308   1.257       .  A
C3298      O3299   1.263       .  A
C3298      C3831   1.489       .  S
O3299     Al3301   1.930       .  S
O3300      C3302   1.254       .  A
O3300     Al3301   1.858       .  S
Al3301     O3309   1.852       .  S
Al3301     O3311   1.916       .  S
Al3301     O3310   1.776       .  S
C3302      O3315   1.266       .  A
C3302      C3871   1.479       .  S
O3303      C3313   1.253       .  A
O3303     Al3305   1.860       .  S
O3304      C3317   1.256       .  A
O3304     Al3314   1.854       .  S
Al3305     O3318   1.922       .  S
Al3305     O3315   1.941       .  S
Al3305     O3310   1.778       .  S
O3306      C3313   1.263       .  A
O3306     Al3314   1.937       .  S
O3307      C3316   1.269       .  A
O3307     Al3314   1.957       .  S
O3308     Al3314   1.877       .  S
O3309      C3316   1.251       .  A
O3310     Al3314   1.779       .  S
O3311      C3312   1.260       .  A
C3312      C3808   1.470       .  S
C3313      C3851   1.486       .  S
C3316      C3791   1.483       .  S
C3317      O3318   1.263       .  A
C3317      C3798   1.465       .  S
C3319      C3320   1.561       .  S
C3319      C3325   1.527       .  S
C3319      C3323   1.514       .  S
C3319      C3901   1.566       .  S
C3320      H3327   1.068       .  S
C3320      C3321   1.397       .  D
C3321      C3322   1.577       .  S
C3322      C3326   1.578       .  S
C3322      C3324   1.552       .  S
C3322      H3328   1.104       .  S
C3323      H3329   1.090       .  S
C3323      C3324   1.338       .  D
C3324      C3781   1.476       .  S
C3325      H3330   1.084       .  S
C3325      C3326   1.374       .  D
C3326      C3400   1.540       .  S
C3331      C3332   1.550       .  S
C3331      C3337   1.504       .  S
C3331      C3335   1.527       .  S
C3331      C3888   1.543       .  S
C3332      H3339   1.067       .  S
C3332      C3333   1.383       .  D
C3333      C3334   1.585       .  S
C3333      C3434   1.569       .  S
C3334      C3338   1.603       .  S
C3334      C3336   1.575       .  S
C3334      H3340   1.100       .  S
C3335      H3341   1.085       .  S
C3335      C3336   1.349       .  D
C3336      C3768   1.538       .  S
C3337      H3342   1.083       .  S
C3337      C3338   1.360       .  D
C3343      C3344   1.538       .  S
C3343      C3349   1.536       .  S
C3343      C3347   1.504       .  S
C3343      C3881   1.545       .  S
C3344      H3351   1.080       .  S
C3344      C3345   1.384       .  D
C3345      C3346   1.594       .  S
C3346      C3350   1.578       .  S
C3346      C3348   1.568       .  S
C3346      H3352   1.099       .  S
C3347      H3353   1.091       .  S
C3347      C3348   1.336       .  D
C3348      C3758   1.484       .  S
C3349      H3354   1.077       .  S
C3349      C3350   1.381       .  D
O3355      C3370   1.254       .  A
C3356      O3366   1.262       .  A
C3356      O3357   1.270       .  A
C3356      C3771   1.506       .  S
O3357     Al3359   1.945       .  S
O3358      C3360   1.253       .  A
Al3359     O3367   1.864       .  S
C3360      O3373   1.256       .  A
C3360      C3761   1.497       .  S
O3361      C3371   1.258       .  A
O3361     Al3363   1.858       .  S
O3362      C3375   1.269       .  A
Al3363     O3376   1.873       .  S
O3364      C3371   1.265       .  A
O3365      C3374   1.269       .  A
O3367      C3374   1.253       .  A
O3369      C3370   1.267       .  A
C3370      C3911   1.475       .  S
C3371      C3778   1.483       .  S
C3374      C3931   1.508       .  S
C3375      O3376   1.257       .  A
C3375      C3951   1.480       .  S
N3377      H3409   1.037       .  S
N3377      C3382   1.370       .  A
N3377      C3381   1.381       .  A
N3378      C3385   1.366       .  A
N3378      C3386   1.363       .  A
N3379      H3410   1.044       .  S
N3379      C3384   1.371       .  A
N3379      C3383   1.365       .  A
N3380      C3387   1.365       .  A
N3380      C3388   1.372       .  A
C3381      C3397   1.462       .  A
C3382      C3398   1.451       .  A
C3382      C3390   1.384       .  A
C3383      C3391   1.383       .  A
C3383      C3400   1.432       .  A
C3384      C3399   1.444       .  A
C3384      C3392   1.389       .  A
C3385      C3397   1.444       .  A
C3385      C3393   1.385       .  A
C3386      C3400   1.435       .  A
C3386      C3394   1.383       .  A
C3387      C3395   1.371       .  A
C3387      C3398   1.433       .  A
C3388      C3396   1.380       .  A
C3388      C3399   1.433       .  A
C3389      H3401   1.070       .  S
C3391      C3392   1.376       .  A
C3391      H3403   1.083       .  S
C3392      H3404   1.081       .  S
C3393      C3394   1.373       .  A
C3393      H3405   1.075       .  S
C3394      H3406   1.074       .  S
C3395      C3396   1.369       .  A
C3395      H3407   1.071       .  S
C3396      H3408   1.078       .  S
N3411      H3443   1.044       .  S
N3411      C3416   1.367       .  A
N3411      C3415   1.365       .  A
N3412      C3419   1.372       .  A
N3412      C3420   1.371       .  A
N3413      H3444   1.044       .  S
N3413      C3418   1.359       .  A
N3413      C3417   1.359       .  A
N3414      C3421   1.359       .  A
N3414      C3422   1.361       .  A
C3415      C3431   1.443   1_565  A
C3416      C3432   1.416       .  A
C3416      C3424   1.373       .  A
C3417      C3425   1.390       .  A
C3417      C3434   1.428       .  A
C3418      C3433   1.418       .  A
C3418      C3426   1.381       .  A
C3419      C3431   1.444   1_565  A
C3419      C3427   1.384       .  A
C3420      C3434   1.428       .  A
C3420      C3428   1.359       .  A
C3421      C3429   1.383       .  A
C3421      C3432   1.425       .  A
C3422      C3430   1.385       .  A
C3422      C3433   1.430       .  A
C3423      H3435   1.065       .  S
C3425      C3426   1.376       .  A
C3425      H3437   1.082       .  S
C3426      H3438   1.083       .  S
C3427      C3428   1.350       .  A
C3427      H3439   1.065       .  S
C3428      H3440   1.070       .  S
C3429      C3430   1.375       .  A
C3429      H3441   1.076       .  S
C3430      H3442   1.074       .  S
N3445      H3477   1.044       .  S
N3445      C3450   1.363       .  A
N3445      C3449   1.371       .  A
N3446      C3453   1.368       .  A
N3446      C3454   1.367       .  A
N3447      H3478   1.043       .  S
N3447      C3452   1.366       .  A
N3447      C3451   1.360       .  A
N3448      C3455   1.362       .  A
N3448      C3456   1.367       .  A
C3449      C3457   1.392       .  A
C3449      C3465   1.447       .  A
C3450      C3466   1.433       .  A
C3451      C3459   1.380       .  A
C3451      C3468   1.421       .  A
C3452      C3467   1.437   1_565  A
C3453      C3465   1.432       .  A
C3453      C3461   1.371       .  A
C3454      C3468   1.425       .  A
C3454      C3462   1.374       .  A
C3455      C3463   1.370       .  A
C3455      C3466   1.423       .  A
C3456      C3464   1.386       .  A
C3456      C3467   1.437   1_565  A
C3458      H3470   1.083       .  S
C3460      H3472   1.081       .  S
C3461      C3462   1.349       .  A
C3461      H3473   1.054       .  S
C3462      H3474   1.068       .  S
C3463      C3464   1.375       .  A
C3463      H3475   1.076       .  S
C3464      H3476   1.075       .  S
C3479      C3480   1.555       .  S
C3479      C3485   1.515       .  S
C3479      C3483   1.506       .  S
C3479      C3971   1.534       .  S
C3480      H3487   1.078       .  S
C3480      C3481   1.387       .  D
C3481      C3482   1.596       .  S
C3481      C3618   1.583       .  S
C3482      C3486   1.595       .  S
C3482      C3484   1.599       .  S
C3482      H3488   1.108       .  S
C3483      H3489   1.090       .  S
C3483      C3484   1.340       .  D
C3484      C3748   1.522       .  S
C3485      H3490   1.084       .  S
C3485      C3486   1.359       .  D
C3491      C3492   1.556       .  S
C3491      C3497   1.531       .  S
C3491      C3495   1.504       .  S
C3491      C3981   1.548       .  S
C3492      H3499   1.080       .  S
C3492      C3493   1.390       .  D
C3493      C3494   1.563       .  S
C3494      C3498   1.573       .  S
C3494      C3496   1.585       .  S
C3494      H3500   1.101       .  S
C3495      H3501   1.090       .  S
C3495      C3496   1.341       .  D
C3496      C3738   1.496       .  S
C3497      H3502   1.081       .  S
C3497      C3498   1.373       .  D
C3498      C3652   1.563       .  S
C3503      C3504   1.548       .  S
C3503      C3509   1.532       .  S
C3503      C3507   1.500       .  S
C3503      C3988   1.538       .  S
C3504      H3511   1.080       .  S
C3504      C3505   1.382       .  D
C3505      C3506   1.575       .  S
C3506      C3510   1.589       .  S
C3506      C3508   1.599       .  S
C3506      H3512   1.104       .  S
C3507      H3513   1.091       .  S
C3507      C3508   1.339       .  D
C3508      C3728   1.508       .  S
C3509      H3514   1.080       .  S
C3509      C3510   1.372       .  D
O3515     Al3523   1.908       .  S
C3516      O3517   1.271       .  A
C3516      C3751   1.524       .  S
O3517     Al3519   1.954       .  S
O3518     Al3519   1.910       .  S
Al3519     O3527   1.903       .  S
Al3519     O3529   1.970       .  S
C3520      C3731   1.510       .  S
O3521      C3531   1.256       .  A
O3521     Al3523   1.888       .  S
O3522     Al3532   1.875       .  S
Al3523     O3536   1.924       .  S
Al3523     O3533   1.932       .  S
O3524     Al3532   1.923   1_455  S
O3525     Al3532   1.942       .  S
O3526     Al3532   1.894       .  S
O3527      C3534   1.258       .  A
O3528     Al3532   1.780       .  S
C3530      C4041   1.521       .  S
C3531      C3741   1.505       .  S
C3534      C4021   1.520       .  S
C3535      O3536   1.265       .  A
C3535      C4001   1.498       .  S
C3537      C3538   1.524       .  S
C3537      C3543   1.549       .  S
C3537      C3541   1.493       .  S
C3538      C3539   1.374       .  D
C3539      C3540   1.578       .  S
C3539      C3650   1.563       .  S
C3540      C3544   1.591       .  S
C3540      C3542   1.593       .  S
C3540      H3546   1.103       .  S
C3541      H3547   1.091       .  S
C3541      C3542   1.338       .  D
C3542      C3718   1.496       .  S
C3543      C3544   1.383       .  D
C3544      C3685   1.583       .  S
C3549      C3550   1.527   1_455  S
C3549      C3555   1.551   1_455  S
C3549      C3553   1.501   1_455  S
C3550      C3551   1.373       .  D
C3551      C3552   1.584       .  S
C3551      C3686   1.562       .  S
C3552      C3556   1.586       .  S
C3552      C3554   1.594       .  S
C3552      H3558   1.105       .  S
C3553      H3559   1.090       .  S
C3553      C3554   1.340       .  D
C3554      C3708   1.503       .  S
C3555      C3556   1.378       .  D
C3556      C3616   1.571       .  S
C3561      C3562   1.502       .  S
C3561      C3567   1.564       .  S
C3561      C3565   1.505       .  S
C3561      C3801   1.535       .  S
C3562      H3569   1.083       .  S
C3562      C3563   1.362       .  D
C3563      C3564   1.601       .  S
C3563      C3617   1.548       .  S
C3564      C3568   1.582       .  S
C3564      C3566   1.591       .  S
C3564      H3570   1.106       .  S
C3565      H3571   1.089       .  S
C3565      C3566   1.342       .  D
C3566      C3698   1.523       .  S
C3567      H3572   1.076       .  S
C3567      C3568   1.385       .  D
C3568      C3649   1.579       .  S
O3573      C3588   1.264       .  A
O3573     Al3581   1.886       .  S
C3574      O3584   1.272       .  A
C3574      O3575   1.262       .  A
C3574      C3701   1.506       .  S
O3575     Al3577   1.909       .  S
O3576      C3578   1.261       .  A
O3576     Al3577   1.939       .  S
Al3577     O3585   1.955       .  S
Al3577     O3587   1.897       .  S
Al3577     O3586   1.781       .  S
C3578      O3591   1.261       .  A
C3578      C3711   1.509       .  S
O3579      C3589   1.259       .  A
O3579     Al3581   1.912       .  S
O3580      C3593   1.263       .  A
O3580     Al3590   1.913       .  S
Al3581     O3594   1.883       .  S
Al3581     O3591   1.898       .  S
Al3581     O3586   1.773       .  S
O3582      C3589   1.254       .  A
O3582     Al3590   1.880       .  S
O3583      C3592   1.257       .  A
O3583     Al3590   1.917       .  S
O3584     Al3590   1.943       .  S
O3585      C3592   1.266       .  A
O3586     Al3590   1.772       .  S
O3587      C3588   1.265       .  A
C3588      C3861   1.471       .  S
C3589      C3721   1.504       .  S
C3592      C3841   1.535       .  S
C3593      O3594   1.254       .  A
C3593      C3821   1.504       .  S
N3595      H3627   1.027       .  S
N3595      C3600   1.378       .  A
N3595      C3599   1.374       .  A
N3596      C3603   1.371       .  A
N3596      C3604   1.374       .  A
N3597      H3628   1.030       .  S
N3597      C3602   1.368       .  A
N3597      C3601   1.374       .  A
N3598      C3605   1.366       .  A
N3598      C3606   1.365       .  A
C3599      C3607   1.385   1_655  A
C3599      C3615   1.462       .  A
C3600      C3616   1.466       .  A
C3600      C3608   1.387   1_655  A
C3601      C3609   1.386       .  A
C3601      C3618   1.457       .  A
C3602      C3617   1.448       .  A
C3602      C3610   1.382       .  A
C3603      C3615   1.451       .  A
C3603      C3611   1.380       .  A
C3604      C3618   1.436       .  A
C3604      C3612   1.363       .  A
C3605      C3613   1.382       .  A
C3605      C3616   1.437       .  A
C3606      C3614   1.374       .  A
C3606      C3617   1.427       .  A
C3607      C3608   1.373       .  A
C3608      H3620   1.074       .  S
C3609      C3610   1.369       .  A
C3609      H3621   1.069       .  S
C3610      H3622   1.082       .  S
C3611      C3612   1.337       .  A
C3611      H3623   1.056       .  S
C3612      H3624   1.061       .  S
C3613      C3614   1.367       .  A
C3613      H3625   1.071       .  S
C3614      H3626   1.075       .  S
N3629      H3661   1.041       .  S
N3629      C3634   1.371       .  A
N3629      C3633   1.374       .  A
N3630      C3637   1.374       .  A
N3630      C3638   1.369       .  A
N3631      H3662   1.040       .  S
N3631      C3636   1.380       .  A
N3631      C3635   1.373       .  A
N3632      C3639   1.369       .  A
N3632      C3640   1.374       .  A
C3633      C3641   1.367       .  A
C3633      C3649   1.436       .  A
C3634      C3650   1.444       .  A
C3634      C3642   1.381       .  A
C3635      C3643   1.379       .  A
C3635      C3652   1.450       .  A
C3636      C3651   1.442       .  A
C3636      C3644   1.365       .  A
C3637      C3649   1.448       .  A
C3637      C3645   1.382       .  A
C3638      C3652   1.454       .  A
C3638      C3646   1.388       .  A
C3639      C3647   1.383       .  A
C3639      C3650   1.450       .  A
C3640      C3648   1.381       .  A
C3640      C3651   1.451       .  A
C3641      C3642   1.355       .  A
C3641      H3653   1.063       .  S
C3642      H3654   1.065       .  S
C3643      C3644   1.341       .  A
C3643      H3655   1.060       .  S
C3644      H3656   1.054       .  S
C3645      C3646   1.366       .  A
C3645      H3657   1.077       .  S
C3646      H3658   1.080       .  S
C3647      C3648   1.365       .  A
C3647      H3659   1.082       .  S
N3663      H3695   1.040       .  S
N3663      C3668   1.370       .  A
N3663      C3667   1.371       .  A
N3664      C3671   1.376       .  A
N3664      C3672   1.373       .  A
N3665      H3696   1.039       .  S
N3665      C3670   1.372       .  A
N3665      C3669   1.371       .  A
N3666      C3673   1.377       .  A
N3666      C3674   1.379       .  A
C3667      C3675   1.383       .  A
C3667      C3683   1.444       .  A
C3668      C3684   1.440       .  A
C3668      C3676   1.381       .  A
C3669      C3677   1.383       .  A
C3669      C3686   1.442       .  A
C3670      C3685   1.446       .  A
C3670      C3678   1.383       .  A
C3671      C3683   1.459       .  A
C3671      C3679   1.386   1_655  A
C3672      C3686   1.454       .  A
C3672      C3680   1.383       .  A
C3673      C3681   1.380       .  A
C3673      C3684   1.459       .  A
C3674      C3682   1.385       .  A
C3674      C3685   1.468       .  A
C3675      C3676   1.365       .  A
C3675      H3687   1.074       .  S
C3676      H3688   1.071       .  S
C3677      C3678   1.362       .  A
C3677      H3689   1.071       .  S
C3678      H3690   1.072       .  S
C3679      C3680   1.364   1_455  A
C3680      H3692   1.082   1_655  S
C3681      C3682   1.364       .  A
C3682      H3694   1.069       .  S
C3697      C3698   1.398       .  A
C3697      C3702   1.412       .  A
C3697     Br3704   1.928       .  S
C3698      C3699   1.433       .  A
C3699      C3700   1.411       .  A
C3699     Br3706   1.932       .  S
C3700      C3701   1.404       .  A
C3700     Br3705   1.929       .  S
C3701      C3702   1.422       .  A
C3702     Br3703   1.887       .  S
C3707      C3708   1.422       .  A
C3707      C3712   1.416       .  A
C3707     Br3714   1.939       .  S
C3708      C3709   1.422       .  A
C3709      C3710   1.414       .  A
C3709     Br3716   1.932       .  S
C3710      C3711   1.414       .  A
C3710     Br3715   1.934       .  S
C3711      C3712   1.421       .  A
C3712     Br3713   1.933       .  S
C3717      C3718   1.422       .  A
C3717      C3722   1.413       .  A
C3717     Br3724   1.937       .  S
C3718      C3719   1.426       .  A
C3719      C3720   1.412       .  A
C3719     Br3726   1.936       .  S
C3720      C3721   1.419       .  A
C3720     Br3725   1.943       .  S
C3721      C3722   1.418       .  A
C3722     Br3723   1.938       .  S
C3727      C3728   1.423       .  A
C3727      C3732   1.416       .  A
C3727     Br3734   1.940   1_565  S
C3728      C3729   1.427       .  A
C3729      C3730   1.415       .  A
C3730      C3731   1.413       .  A
C3731      C3732   1.418       .  A
C3732     Br3733   1.933   1_565  S
C3737      C3738   1.419       .  A
C3737      C3742   1.412       .  A
C3737     Br3744   1.942       .  S
C3738      C3739   1.422       .  A
C3739      C3740   1.411       .  A
C3739     Br3746   1.934       .  S
C3740      C3741   1.415       .  A
C3740     Br3745   1.938       .  S
C3741      C3742   1.418       .  A
C3742     Br3743   1.929       .  S
C3747      C3748   1.388       .  A
C3747      C3752   1.403       .  A
C3748      C3749   1.426       .  A
C3749      C3750   1.427       .  A
C3749     Br3756   1.925       .  S
C3750      C3751   1.421       .  A
C3750     Br3755   1.930       .  S
C3751      C3752   1.418       .  A
C3757      C3758   1.421       .  A
C3757      C3762   1.409       .  A
C3757     Br3764   1.934       .  S
C3758      C3759   1.420       .  A
C3759      C3760   1.407       .  A
C3759     Br3766   1.943       .  S
C3760      C3761   1.419       .  A
C3761      C3762   1.418       .  A
C3767      C3768   1.436       .  A
C3767      C3772   1.416       .  A
C3767     Br3774   1.936       .  S
C3768      C3769   1.413       .  A
C3769      C3770   1.414       .  A
C3769     Br3776   1.931       .  S
C3770      C3771   1.416       .  A
C3770     Br3775   1.896   1_565  S
C3771      C3772   1.403       .  A
C3772     Br3773   1.930       .  S
C3777      C3778   1.412       .  A
C3777      C3782   1.403       .  A
C3777     Br3784   1.937       .  S
C3778      C3779   1.416       .  A
C3779      C3780   1.404       .  A
C3780      C3781   1.414       .  A
C3780     Br3785   1.937       .  S
C3781      C3782   1.415       .  A
C3782     Br3783   1.932       .  S
C3787      C3788   1.410       .  A
C3787      C3792   1.409       .  A
C3787     Br3794   1.925       .  S
C3788      C3789   1.427       .  A
C3789      C3790   1.405       .  A
C3789     Br3796   1.936       .  S
C3790      C3791   1.414       .  A
C3790     Br3795   1.940       .  S
C3791      C3792   1.413       .  A
C3792     Br3793   1.922       .  S
C3797      C3798   1.410       .  A
C3797      C3802   1.399       .  A
C3797     Br3804   1.922       .  S
C3798      C3799   1.407       .  A
C3799      C3800   1.401       .  A
C3799     Br3806   1.940       .  S
C3800      C3801   1.430       .  A
C3800     Br3805   1.939       .  S
C3801      C3802   1.404       .  A
C3802     Br3803   1.926       .  S
C3807      C3808   1.397       .  A
C3807      C3812   1.397       .  A
C3807     Br3814   1.935       .  S
C3808      C3809   1.415       .  A
C3809      C3810   1.416       .  A
C3809     Br3816   1.921       .  S
C3810      C3811   1.411       .  A
C3810     Br3815   1.924       .  S
C3811      C3812   1.427       .  A
C3812     Br3813   1.926       .  S
C3817      C3818   1.404       .  A
C3817      C3822   1.413       .  A
C3817     Br3824   1.928       .  S
C3818      C3819   1.425       .  A
C3819      C3820   1.407       .  A
C3819     Br3826   1.935       .  S
C3820      C3821   1.420       .  A
C3820     Br3825   1.943       .  S
C3821      C3822   1.431       .  A
C3822     Br3823   1.934       .  S
C3827      C3828   1.420       .  A
C3827      C3832   1.406       .  A
C3827     Br3834   1.936       .  S
C3828      C3829   1.416       .  A
C3829      C3830   1.409       .  A
C3829     Br3836   1.936       .  S
C3830      C3831   1.416       .  A
C3830     Br3835   1.930       .  S
C3831      C3832   1.409       .  A
C3832     Br3833   1.936       .  S
C3837      C3838   1.405       .  A
C3837      C3842   1.417       .  A
C3837     Br3844   1.927       .  S
C3838      C3839   1.423       .  A
C3839      C3840   1.426       .  A
C3839     Br3846   1.927       .  S
C3840      C3841   1.431       .  A
C3840     Br3845   1.934       .  S
C3841      C3842   1.432       .  A
C3842     Br3843   1.924       .  S
C3847      C3848   1.420       .  A
C3847      C3852   1.410       .  A
C3847     Br3854   1.934       .  S
C3848      C3849   1.411       .  A
C3849      C3850   1.403       .  A
C3849     Br3856   1.935       .  S
C3850      C3851   1.408       .  A
C3850     Br3855   1.934       .  S
C3851      C3852   1.410       .  A
C3852     Br3853   1.926       .  S
C3857      C3858   1.413       .  A
C3857      C3862   1.412       .  A
C3857     Br3864   1.928       .  S
C3858      C3859   1.424       .  A
C3859      C3860   1.392       .  A
C3859     Br3866   1.941       .  S
C3860      C3861   1.408       .  A
C3860     Br3865   1.941       .  S
C3861      C3862   1.414       .  A
C3862     Br3863   1.925       .  S
C3867      C3868   1.419       .  A
C3867      C3872   1.407       .  A
C3867     Br3874   1.929       .  S
C3868      C3869   1.393       .  A
C3869      C3870   1.396       .  A
C3869     Br3876   1.918       .  S
C3870      C3871   1.406       .  A
C3870     Br3875   1.901       .  S
C3871      C3872   1.409       .  A
C3872     Br3873   1.930       .  S
C3877      C3878   1.424       .  A
C3877      C3882   1.410       .  A
C3877     Br3884   1.914       .  S
C3878      C3879   1.426       .  A
C3879      C3880   1.405       .  A
C3879     Br3886   1.950       .  S
C3880      C3881   1.425       .  A
C3880     Br3885   1.932       .  S
C3881      C3882   1.399       .  A
C3882     Br3883   1.926       .  S
C3887      C3888   1.418       .  A
C3887      C3892   1.410       .  A
C3887     Br3894   1.934       .  S
C3888      C3889   1.402       .  A
C3889      C3890   1.409       .  A
C3889     Br3896   1.928       .  S
C3890      C3891   1.429       .  A
C3890     Br3895   1.931       .  S
C3891      C3892   1.428       .  A
C3892     Br3893   1.942       .  S
C3897      C3898   1.421       .  A
C3897      C3902   1.413       .  A
C3897     Br3904   1.937       .  S
C3898      C3899   1.435       .  A
C3899      C3900   1.426       .  A
C3899     Br3906   1.919       .  S
C3900      C3901   1.405       .  A
C3900     Br3905   1.929       .  S
C3901      C3902   1.425       .  A
C3902     Br3903   1.932       .  S
C3907      C3908   1.431       .  A
C3907      C3912   1.401       .  A
C3907     Br3914   1.941       .  S
C3908      C3909   1.407       .  A
C3909      C3910   1.407       .  A
C3909     Br3916   1.930   1_554  S
C3910      C3911   1.409       .  A
C3911      C3912   1.405       .  A
C3912     Br3913   1.938       .  S
C3917      C3918   1.405       .  A
C3917      C3922   1.408       .  A
C3917     Br3924   1.926       .  S
C3918      C3919   1.420       .  A
C3919      C3920   1.405       .  A
C3919     Br3926   1.938       .  S
C3920      C3921   1.414       .  A
C3920     Br3925   1.939       .  S
C3921      C3922   1.414       .  A
C3922     Br3923   1.920       .  S
C3927      C3928   1.419       .  A
C3927      C3932   1.410       .  A
C3927     Br3934   1.926       .  S
C3928      C3929   1.415       .  A
C3929      C3930   1.420       .  A
C3929     Br3936   1.921   1_654  S
C3930      C3931   1.420       .  A
C3931      C3932   1.420       .  A
C3932     Br3933   1.936       .  S
C3937      C3938   1.425       .  A
C3937      C3942   1.414       .  A
C3937     Br3944   1.932       .  S
C3938      C3939   1.414       .  A
C3939      C3940   1.415       .  A
C3939     Br3946   1.929       .  S
C3940      C3941   1.414       .  A
C3940     Br3945   1.930       .  S
C3941      C3942   1.418       .  A
C3942     Br3943   1.937       .  S
C3947      C3948   1.421       .  A
C3947      C3952   1.395       .  A
C3947     Br3954   1.943       .  S
C3948      C3949   1.405       .  A
C3949      C3950   1.411       .  A
C3949     Br3956   1.929   1_554  S
C3950      C3951   1.415       .  A
C3951      C3952   1.418       .  A
C3952     Br3953   1.941       .  S
C3957      C3958   1.421       .  A
C3957      C3962   1.411       .  A
C3957     Br3964   1.933       .  S
C3958      C3959   1.396       .  A
C3959      C3960   1.413       .  A
C3959     Br3966   1.931       .  S
C3960      C3961   1.422       .  A
C3960     Br3965   1.886       .  S
C3961      C3962   1.416       .  A
C3962     Br3963   1.930       .  S
C3967      C3968   1.421       .  A
C3967      C3972   1.407       .  A
C3967     Br3974   1.931       .  S
C3968      C3969   1.411       .  A
C3969      C3970   1.397       .  A
C3969     Br3976   1.941       .  S
C3970      C3971   1.426       .  A
C3970     Br3975   1.942       .  S
C3971      C3972   1.407       .  A
C3972     Br3973   1.926       .  S
C3977      C3978   1.408       .  A
C3977      C3982   1.392       .  A
C3977     Br3984   1.942       .  S
C3978      C3979   1.424       .  A
C3979      C3980   1.419       .  A
C3979     Br3986   1.920       .  S
C3980      C3981   1.411       .  A
C3980     Br3985   1.929       .  S
C3981      C3982   1.422       .  A
C3982     Br3983   1.929       .  S
C3987      C3988   1.423       .  A
C3987      C3992   1.402       .  A
C3987     Br3994   1.936       .  S
C3988      C3989   1.403       .  A
C3989      C3990   1.409       .  A
C3989     Br3996   1.930       .  S
C3990      C3991   1.430       .  A
C3990     Br3995   1.935       .  S
C3991      C3992   1.420       .  A
C3992     Br3993   1.944       .  S
C3997      C3998   1.426       .  A
C3997      C4002   1.406       .  A
C3997     Br4004   1.935       .  S
C3998      C3999   1.396       .  A
C3999      C4000   1.407       .  A
C3999     Br4006   1.928       .  S
C4000      C4001   1.430       .  A
C4001      C4002   1.418       .  A
C4002     Br4003   1.941       .  S
C4007      C4008   1.426       .  A
C4007      C4012   1.410       .  A
C4007     Br4014   1.938       .  S
C4008      C4009   1.423       .  A
C4009      C4010   1.405       .  A
C4009     Br4016   1.930       .  S
C4010      C4011   1.405       .  A
C4010     Br4015   1.935       .  S
C4011      C4012   1.409       .  A
C4012     Br4013   1.937       .  S
C4017      C4018   1.397       .  A
C4017      C4022   1.409       .  A
C4017     Br4024   1.924       .  S
C4018      C4019   1.419       .  A
C4019      C4020   1.420       .  A
C4019     Br4026   1.928   1_565  S
C4020      C4021   1.432       .  A
C4020     Br4025   1.936   1_565  S
C4021      C4022   1.431       .  A
C4022     Br4023   1.925       .  S
C4027      C4028   1.429       .  A
C4027      C4032   1.404       .  A
C4027     Br4034   1.944       .  S
C4028      C4029   1.420       .  A
C4029      C4030   1.410       .  A
C4029     Br4036   1.934       .  S
C4030      C4031   1.412       .  A
C4030     Br4035   1.936       .  S
C4031      C4032   1.410       .  A
C4032     Br4033   1.942       .  S
C4037      C4038   1.403       .  A
C4037      C4042   1.413       .  A
C4037     Br4044   1.929       .  S
C4038      C4039   1.426       .  A
C4039      C4040   1.420       .  A
C4039     Br4046   1.938       .  S
C4040      C4041   1.426       .  A
C4041      C4042   1.432       .  A
C4047      C4048   1.399       .  A
C4047      C4052   1.398       .  A
C4047     Br4054   1.931       .  S
C4048      C4049   1.417       .  A
C4049      C4050   1.412       .  A
C4049     Br4056   1.913       .  S
C4050      C4051   1.410       .  A
C4050     Br4055   1.928       .  S
C4051      C4052   1.427       .  A
C4052     Br4053   1.936       .  S
