geometry optimzed in LAMMPS
_audit_creation_date              2020-11-30 
_audit_creation_method            'lammps2cif' 
_symmetry_space_group_name_H-M    'P1' 
_symmetry_Int_Tables_number       1 
_symmetry_cell_setting            triclinic 
loop_ 
_symmetry_equiv_pos_as_xyz 
  x,y,z 
_cell_length_a                    36.36961001 
_cell_length_b                    35.746180687333236 
_cell_length_c                    86.02735276359319 
_cell_angle_alpha                 89.93575507719159 
_cell_angle_beta                  90.11816323477233 
_cell_angle_gamma                 121.75764164204374 
loop_ 
_atom_site_label 
_atom_site_type_symbol 
_atom_site_fract_x 
_atom_site_fract_y 
_atom_site_fract_z 
_atom_site_charge 
C1          C  0.07986688  0.43681962  0.90052409     0.86700
C2          C  0.05275485  0.40477193  0.91357626    -0.53500
C3          C  0.07356893  0.38725345  0.92122376     0.09600
C4          C  0.11919645  0.40303551  0.91470911     0.20600
C5          C  0.12248105  0.47127169  0.90872207    -0.54300
C6          C  0.14252192  0.45325098  0.91649592     0.09700
C7          C  0.09162554  0.41024579  0.89017179    -0.53800
C8          C  0.11360982  0.39410030  0.89716126     0.10300
H9          H  0.02142155  0.39881621  0.91702805     0.14800
H10         H  0.13568313  0.38805776  0.92039529     0.00600
H11         H  0.13340409  0.50591070  0.90952131     0.15100
H12         H  0.08234771  0.40403150  0.87817333     0.14900
C13         C  0.38583384  0.43097013  0.89965812     0.86700
C14         C  0.38920484  0.46317255  0.91242488    -0.53500
C15         C  0.35267291  0.44669077  0.92146861     0.09600
C16         C  0.31584859  0.40005531  0.91639627     0.20600
C17         C  0.37360583  0.38843725  0.90874957    -0.54300
C18         C  0.33713129  0.37263139  0.91774905     0.09700
C19         C  0.34529118  0.41999896  0.89058823    -0.53800
C20         C  0.30835662  0.40224059  0.89887829     0.10300
H21         H  0.41911056  0.49377235  0.91509096     0.14800
H22         H  0.28602535  0.38835430  0.92324374     0.00600
H23         H  0.39350455  0.37408685  0.90886739     0.15100
H24         H  0.34561068  0.42570345  0.87834316     0.14900
C25         C  0.06102718  0.12177222  0.90015565     0.86700
C26         C  0.09071744  0.12619155  0.91369983    -0.53500
C27         C  0.10544229  0.16402415  0.92223062     0.09600
C28         C  0.08976293  0.19406000  0.91611244     0.20600
C29         C  0.02514466  0.12602917  0.90794240    -0.54300
C30         C  0.04010512  0.16340229  0.91664984     0.09700
C31         C  0.08783435  0.16346801  0.89087239    -0.53800
C32         C  0.10260155  0.20129546  0.89874235     0.10300
H33         H  0.09690546  0.10057381  0.91685208     0.14800
H34         H  0.10214165  0.22516415  0.92269788     0.00600
H35         H  0.99171451  0.09888119  0.90848783     0.15100
H36         H  0.09576989  0.16315982  0.87890774     0.14900
Fe37       Fe  0.20974915  0.30191339  0.86983193     1.65800
Fe38       Fe  0.11448643  0.29754895  0.86541101     1.73200
Fe39       Fe  0.20947586  0.39587222  0.86680028     1.54400
O40         O  0.25881848  0.40503045  0.88175921    -0.81500
O41         O  0.11464007  0.33075330  0.84560485    -0.79800
O42         O  0.24375251  0.33910217  0.88937322    -0.84000
O43         O  0.25869238  0.34527688  0.85490563    -0.78800
O44         O  0.17429161  0.39666253  0.88579293    -0.80600
O45         O  0.11328444  0.25040996  0.85071971    -0.83300
C46         C  0.26634623  0.37767300  0.84631023     0.97400
C47         C  0.26659060  0.38083898  0.89022188     1.04900
O48         O  0.17776314  0.33155610  0.86736722    -1.12300
O49         O  0.10644011  0.26033204  0.88508550    -0.74800
O50         O  0.16405573  0.25370212  0.88466918    -0.78200
O51         O  0.24599889  0.39762297  0.84782252    -0.78900
C52         C  0.12684500  0.24263879  0.88979827     0.96300
O53         O  0.18001666  0.26263540  0.85044037    -0.76900
O54         O  0.10796727  0.34071860  0.87966183    -0.82100
C55         C  0.13313895  0.37198635  0.84373782     0.98900
C56         C  0.13332625  0.37510633  0.88750505     1.04900
O57         O  0.16646226  0.39893964  0.85155442    -0.77700
C58         C  0.14137815  0.24286338  0.84533994     1.03200
C59         C  0.26380949  0.52162052  0.01638016     0.02500
C60         C  0.30225645  0.52187989  0.01963508     0.02500
C61         C  0.31396145  0.52138531  0.03521842    -0.18100
C62         C  0.28113941  0.01859497  0.04758174     0.02500
C63         C  0.24254668  0.01868469  0.04468968     0.02500
C64         C  0.23992225  0.52422981  0.02874692    -0.18100
H65         H  0.21063713  0.52413745  0.02627126     0.04500
H66         H  0.34278111  0.52058732  0.03767707     0.04500
C67         C  0.12745398  0.06610715  0.16625239     0.86700
C68         C  0.13632095  0.10987467  0.15916148    -0.53500
C69         C  0.17406401  0.13284382  0.15099086     0.09600
C70         C  0.20096395  0.11102863  0.15145238     0.20600
C71         C  0.13110222  0.04116885  0.15221307    -0.54300
C72         C  0.16969654  0.06512746  0.14423901     0.09700
C73         C  0.16700001  0.07799092  0.17599940    -0.53800
C74         C  0.20549415  0.10221621  0.16874314     0.10300
H75         H  0.11132138  0.11772285  0.15819621     0.14800
H76         H  0.23256583  0.13048056  0.14542187     0.00600
H77         H  0.10456269  0.00950423  0.14825754     0.15100
H78         H  0.16460944  0.06617599  0.18767362     0.14900
C79         C  0.44870108  0.36265870  0.16551079     0.86700
C80         C  0.48242438  0.35791914  0.15628669    -0.53500
C81         C  0.46561022  0.31808451  0.14884803     0.09600
C82         C  0.41697949  0.28617036  0.15217649     0.20600
C83         C  0.41325376  0.35242101  0.15336248    -0.54300
C84         C  0.39718055  0.31244621  0.14605737     0.09700
C85         C  0.42847111  0.32400497  0.17651114    -0.53800
C86         C  0.41111009  0.28410732  0.16995779     0.10300
H87         H  0.51429041  0.38598676  0.15360102     0.14800
H88         H  0.40386297  0.25324704  0.14687197     0.00600
H89         H  0.40512306  0.37635891  0.14981831     0.15100
H90         H  0.42854694  0.32828140  0.18878433     0.14900
C91         C  0.42409700  0.04686782  0.16500756     0.86700
C92         C  0.38016126  0.01054135  0.15789194    -0.53500
C93         C  0.35657740  0.02637606  0.15125138     0.09600
C94         C  0.37808227  0.07636776  0.15324204     0.20600
C95         C  0.44651883  0.07897502  0.15140680    -0.54300
C96         C  0.42173146  0.09382661  0.14491447     0.09700
C97         C  0.41336391  0.07255277  0.17627190    -0.53800
C98         C  0.38812730  0.08657169  0.17052992     0.10300
H99         H  0.37197335  0.97692762  0.15614668     0.14800
H100        H  0.35911673  0.09017778  0.14884864     0.00600
H101        H  0.47665188  0.08531102  0.14641444     0.15100
H102        H  0.42721763  0.08107773  0.18769177     0.14900
Fe103      Fe  0.30358366  0.18971939  0.20046255     1.65800
Fe104      Fe  0.39398540  0.18578769  0.20306983     1.73200
Fe105      Fe  0.29647980  0.09203691  0.20047432     1.54400
O106        O  0.26063189  0.08899100  0.21968046    -0.81500
O107        O  0.39733966  0.13892951  0.18953093    -0.79800
O108        O  0.25127898  0.14441716  0.21407821    -0.84000
O109        O  0.27085767  0.15957342  0.17996719    -0.78800
O110        O  0.33797857  0.08466094  0.21525845    -0.80600
O111        O  0.40283528  0.22157134  0.18293528    -0.83300
C112        C  0.24560637  0.11847776  0.17801522     0.97400
C113        C  0.24104593  0.10944365  0.22162106     1.04900
O114        O  0.33128480  0.15587616  0.20131289    -1.12300
O115        O  0.39967468  0.23699941  0.21696617    -0.74800
O116        O  0.33297810  0.22224201  0.22093375    -0.78200
O117        O  0.24981722  0.09045712  0.18571562    -0.78900
C118        C  0.37309405  0.24423902  0.22397223     0.96300
O119        O  0.35316952  0.23925277  0.18688815    -0.76900
O120        O  0.38915917  0.15156957  0.22310641    -0.82100
C121        C  0.37103753  0.10749476  0.18067448     0.98900
C122        C  0.37046969  0.10998652  0.22380817     1.04900
O123        O  0.33043194  0.09131543  0.18117671    -0.77700
C124        C  0.38674420  0.24482379  0.17996054     1.03200
C125        C  0.97557080  0.21295316  0.01656260     0.02500
C126        C  0.00085304  0.25879972  0.01983274     0.02500
C127        C  0.00614256  0.27379222  0.03527534    -0.18100
C128        C  0.47791657  0.23957503  0.04587574     0.02500
C129        C  0.45416443  0.19344139  0.04322514     0.02500
C130        C  0.95646209  0.18345669  0.02906125    -0.18100
H131        H  0.93683108  0.14842810  0.02676557     0.04500
H132        H  0.02616169  0.30877163  0.03760937     0.04500
C133        C  0.27341281  0.24931246  0.01761253     0.02500
C134        C  0.22991688  0.21587744  0.02066833     0.02500
C135        C  0.21549143  0.20465427  0.03598920    -0.18100
C136        C  0.24422508  0.22342488  0.04854463     0.02500
C137        C  0.28914817  0.25163019  0.04535736     0.02500
C138        C  0.30310424  0.26562272  0.02999719    -0.18100
H139        H  0.33693243  0.28944640  0.02773217     0.04500
H140        H  0.18143684  0.18139853  0.03806631     0.04500
C141        C  0.47374098  0.23396100  0.50093729     0.86700
C142        C  0.48438974  0.27743497  0.49312745    -0.53500
C143        C  0.01942432  0.29377640  0.48456461     0.09600
C144        C  0.04551438  0.27131044  0.48647251     0.20600
C145        C  0.47769124  0.20723990  0.48768086    -0.54300
C146        C  0.01416153  0.22430030  0.48020313     0.09700
C147        C  0.00983190  0.24302058  0.51119268    -0.53800
C148        C  0.04881797  0.26537882  0.50411068     0.10300
H149        H  0.46004253  0.28591880  0.49137914     0.14800
H150        H  0.07744539  0.28924325  0.48058060     0.00600
H151        H  0.45102929  0.17542913  0.48388975     0.15100
H152        H  0.50852126  0.23468608  0.52321746     0.14900
C153        C  0.27175353  0.22435788  0.49891579     0.86700
C154        C  0.22883985  0.19167883  0.49035568    -0.53500
C155        C  0.20826412  0.21134303  0.48395228     0.09600
C156        C  0.23100550  0.26058679  0.48791150     0.20600
C157        C  0.29785007  0.26001664  0.48668393    -0.54300
C158        C  0.27606528  0.27865795  0.48068589     0.09700
C159        C  0.25973404  0.24726020  0.51092449    -0.53800
C160        C  0.23710896  0.26467304  0.50552328     0.10300
H161        H  0.21954363  0.15813022  0.48774856     0.14800
H162        H  0.21443057  0.27738130  0.48391888     0.00600
H163        H  0.32802535  0.26583856  0.48189082     0.15100
H164        H  0.27011085  0.25035083  0.52272842     0.14900
C165        C  0.28590021  0.03482302  0.49938141     0.86700
C166        C  0.32011886  0.03009222  0.49049356    -0.53500
C167        C  0.30505677  0.49090564  0.48481278     0.09600
C168        C  0.25597844  0.45804981  0.48585151     0.20600
C169        C  0.25138865  0.02511780  0.48680137    -0.54300
C170        C  0.23781303  0.48395165  0.47768044     0.09700
C171        C  0.25533626  0.49447143  0.50945078    -0.53800
C172        C  0.24378419  0.45513769  0.50328108     0.10300
H173        H  0.35207755  0.05826393  0.48799259     0.14800
H174        H  0.24588661  0.42557818  0.48071692     0.00600
H175        H  0.24374916  0.04932024  0.48312418     0.15100
H176        H  0.26199477  0.99957618  0.52239900     0.14900
Fe177      Fe  0.14438071  0.35932684  0.53552411     1.65800
Fe178      Fe  0.14306046  0.26441842  0.53697631     1.73200
Fe179      Fe  0.23903875  0.36262682  0.53741378     1.54400
O180        O  0.24315135  0.39670481  0.51701964    -0.81500
O181        O  0.18653944  0.26209529  0.55234948    -0.79800
O182        O  0.18958929  0.40847070  0.52101188    -0.84000
O183        O  0.17516830  0.39532844  0.55520985    -0.78800
O184        O  0.24491460  0.31788009  0.52376473    -0.80600
O185        O  0.10474316  0.26036412  0.55579146    -0.83300
C186        C  0.21542376  0.41946417  0.55791435     0.97400
C187        C  0.22339803  0.41636556  0.51377496     1.04900
O188        O  0.17550302  0.32868077  0.53671310    -1.12300
O189        O  0.09522083  0.25801923  0.52159944    -0.74800
O190        O  0.11070460  0.32548631  0.51571932    -0.78200
O191        O  0.24288645  0.41297874  0.55124781    -0.78900
C192        C  0.08846622  0.28414963  0.51376764     0.96300
O193        O  0.09446875  0.31486366  0.54986716    -0.76900
O194        O  0.17806141  0.26290373  0.51805969    -0.82100
C195        C  0.22132910  0.28924152  0.55956018     0.98900
C196        C  0.21886064  0.28339121  0.51614926     1.04900
O197        O  0.24030575  0.33064956  0.55751882    -0.77700
C198        C  0.08428338  0.28012464  0.55743744     1.03200
C199        C  0.20118040  0.08965103  0.23185886     0.86700
C200        C  0.20236248  0.11920124  0.24503705    -0.53500
C201        C  0.16444927  0.10105257  0.25320931     0.09600
C202        C  0.12875600  0.05529952  0.24717033     0.20600
C203        C  0.18792146  0.04556349  0.24010928    -0.54300
C204        C  0.15035512  0.02807007  0.24859259     0.09700
C205        C  0.16234949  0.08011814  0.22206267    -0.53800
C206        C  0.12425271  0.06084121  0.22964328     0.10300
H207        H  0.23171415  0.14925502  0.24860163     0.14800
H208        H  0.09762964  0.04218745  0.25329623     0.00600
H209        H  0.20866513  0.03221497  0.24046440     0.15100
H210        H  0.16472490  0.08791120  0.20991265     0.14900
C211        C  0.39060869  0.28526958  0.23395337     0.86700
C212        C  0.42736553  0.29509529  0.24539655    -0.53500
C213        C  0.44361417  0.33414859  0.25333293     0.09600
C214        C  0.42322436  0.36085734  0.24817488     0.20600
C215        C  0.35761149  0.28903038  0.24400494    -0.54300
C216        C  0.37459599  0.32847804  0.25164111     0.09700
C217        C  0.40933210  0.32460517  0.22325998    -0.53800
C218        C  0.42748889  0.36425436  0.23017006     0.10300
H219        H  0.43557459  0.27081440  0.24834538     0.14800
H220        H  0.43725902  0.39322077  0.25405795     0.00600
H221        H  0.32531959  0.26122124  0.24635261     0.15100
H222        H  0.40739260  0.32094206  0.21092523     0.14900
C223        C  0.39150381  0.08980911  0.23284985     0.86700
C224        C  0.36226075  0.05203457  0.24391331    -0.53500
C225        C  0.38264844  0.03313071  0.25089756     0.09600
C226        C  0.43002669  0.05313745  0.24544491     0.20600
C227        C  0.43120699  0.12158566  0.24294352    -0.54300
C228        C  0.45078181  0.10189873  0.24990517     0.09700
C229        C  0.40756441  0.06940324  0.22136634    -0.53800
C230        C  0.42892740  0.05154253  0.22759042     0.10300
H231        H  0.32984885  0.04385067  0.24683423     0.14800
H232        H  0.44626949  0.03689992  0.25031855     0.00600
H233        H  0.43987074  0.15491693  0.24565079     0.15100
H234        H  0.40076631  0.06799506  0.20921865     0.14900
Fe235      Fe  0.03427983  0.46003114  0.19936025     1.65800
Fe236      Fe  0.44003400  0.46009561  0.19561798     1.73200
Fe237      Fe  0.02723812  0.05664655  0.19708434     1.54400
O238        O  0.07651042  0.06558621  0.21212090    -0.81500
O239        O  0.44203236  0.49440226  0.17582573    -0.79800
O240        O  0.06771023  0.49491984  0.21914536    -0.84000
O241        O  0.07952239  0.00930632  0.18435506    -0.78800
O242        O  0.99206333  0.05661557  0.21621425    -0.80600
O243        O  0.43785572  0.41198484  0.18104643    -0.83300
C244        C  0.08692862  0.04285183  0.17642879     0.97400
C245        C  0.08397930  0.04062479  0.22030595     1.04900
O246        O  0.00297844  0.49068556  0.19774193    -1.12300
O247        O  0.43092925  0.42238174  0.21541797    -0.74800
O248        O  0.48688332  0.41313440  0.21424834    -0.78200
O249        O  0.06438020  0.06037697  0.17812616    -0.78900
C250        C  0.45071592  0.40383843  0.22001756     0.96300
O251        O  0.50434427  0.42370701  0.17984056    -0.76900
O252        O  0.43427755  0.50418765  0.20988466    -0.82100
C253        C  0.44934986  0.03044348  0.17384489     0.98900
C254        C  0.44924242  0.03411548  0.21735346     1.04900
O255        O  0.48255412  0.05806765  0.18169365    -0.77700
C256        C  0.46523808  0.40374344  0.17534248     1.03200
C257        C  0.05846794  0.14909640  0.38058698     0.02500
C258        C  0.09950595  0.15368305  0.38169449     0.02500
C259        C  0.12007627  0.15218964  0.36814195    -0.18100
C260        C  0.10096376  0.14747700  0.35349168     0.02500
C261        C  0.05887080  0.14070033  0.35244512     0.02500
C262        C  0.03841356  0.14232578  0.36602848    -0.18100
H263        H  0.00684425  0.13848758  0.36527543     0.04500
H264        H  0.15216414  0.15728829  0.36892003     0.04500
C265        C  0.32337265  0.38783764  0.38071956     0.02500
C266        C  0.35015250  0.43378073  0.38357608     0.02500
C267        C  0.36831612  0.46231179  0.37078860    -0.18100
C268        C  0.36245761  0.44589063  0.35552204     0.02500
C269        C  0.33752777  0.39978011  0.35281064     0.02500
C270        C  0.31864739  0.37145387  0.36555237    -0.18100
H271        H  0.29878971  0.33626268  0.36359914     0.04500
H272        H  0.38820898  0.49749360  0.37273779     0.04500
C273        C  0.12086233  0.41409055  0.37733277     0.02500
C274        C  0.07645752  0.38450970  0.38088568     0.02500
C275        C  0.04661837  0.36477523  0.36864197    -0.18100
C276        C  0.05944385  0.37575014  0.35315015     0.02500
C277        C  0.10246804  0.40984426  0.34969994     0.02500
C278        C  0.13315463  0.42757331  0.36182142    -0.18100
H279        H  0.16657662  0.45203783  0.35921580     0.04500
H280        H  0.01303697  0.34057155  0.37112924     0.04500
C281        C  0.30390312  0.39453356  0.83504239     0.86700
C282        C  0.31450273  0.43534989  0.82522292    -0.53500
C283        C  0.35026251  0.45046284  0.81592854     0.09600
C284        C  0.37284777  0.42429279  0.81785937     0.20600
C285        C  0.30042315  0.36095958  0.82301089    -0.54300
C286        C  0.33639399  0.37665058  0.81382681     0.09700
C287        C  0.34507250  0.40774643  0.84401521    -0.53800
C288        C  0.38143758  0.42454966  0.83544814     0.10300
H289        H  0.29393139  0.44891227  0.82487185     0.14800
H290        H  0.40227081  0.43578109  0.81077340     0.00600
H291        H  0.27080328  0.32952166  0.82095534     0.15100
H292        H  0.34554091  0.40377476  0.85634518     0.14900
C293        C  0.12657373  0.20420470  0.83430456     0.86700
C294        C  0.16323019  0.20011554  0.82711361    -0.53500
C295        C  0.14946669  0.16339340  0.81812872     0.09600
C296        C  0.09963857  0.13230159  0.81825813     0.20600
C297        C  0.09816815  0.19993829  0.82021188    -0.54300
C298        C  0.08443949  0.16233323  0.81156000     0.09700
C299        C  0.09884459  0.16230777  0.84336515    -0.53800
C300        C  0.08492212  0.12451479  0.83558946     0.10300
H301        H  0.19642464  0.22781537  0.82670348     0.14800
H302        H  0.08813599  0.10131387  0.81169838     0.00600
H303        H  0.09262636  0.22577552  0.81673283     0.15100
H304        H  0.08968298  0.16248596  0.85518267     0.14900
C305        C  0.11190660  0.39041392  0.83366782     0.86700
C306        C  0.07033215  0.35639751  0.82475414    -0.53500
C307        C  0.05076103  0.37472825  0.81682391     0.09600
C308        C  0.07365893  0.42486123  0.81910935     0.20600
C309        C  0.14040354  0.42393252  0.82117903    -0.54300
C310        C  0.12014137  0.44151809  0.81328091     0.09700
C311        C  0.09843342  0.41560574  0.84400634    -0.53800
C312        C  0.07711016  0.43233379  0.83686496     0.10300
H313        H  0.05953903  0.32181719  0.82381059     0.14800
H314        H  0.05847095  0.44079304  0.81308038     0.00600
H315        H  0.17169041  0.42955856  0.81781108     0.15100
H316        H  0.10636836  0.42073539  0.85612664     0.14900
Fe317      Fe  0.47717758  0.02460573  0.86471486     1.65800
Fe318      Fe  0.48139763  0.43074205  0.86687005     1.73200
Fe319      Fe  0.07113517  0.02739176  0.86933591     1.54400
O320        O  0.07989639  0.06461044  0.84945433    -0.81500
O321        O  0.02427891  0.42759467  0.88311160    -0.79800
O322        O  0.02326806  0.07272672  0.85018715    -0.84000
O323        O  0.00678973  0.06345874  0.88450483    -0.78800
O324        O  0.08263124  0.48666054  0.85410104    -0.80600
O325        O  0.44286126  0.42723657  0.88584242    -0.83300
C326        C  0.04559742  0.08301668  0.88932486     0.97400
C327        C  0.06012565  0.08304108  0.84477249     1.04900
O328        O  0.01254224  0.49456655  0.86736131    -1.12300
O329        O  0.43289937  0.42166004  0.85145926    -0.74800
O330        O  0.44394605  0.48739703  0.84565248    -0.78200
O331        O  0.07332114  0.07515351  0.88381467    -0.78900
C332        C  0.42338075  0.44596660  0.84387073     0.96300
O333        O  0.43237528  0.48187179  0.88031941    -0.76900
O334        O  0.01646652  0.42928816  0.84876964    -0.82100
C335        C  0.05824448  0.45489560  0.89055442     0.98900
C336        C  0.05728700  0.45153328  0.84656864     1.04900
O337        O  0.07718427  0.49605905  0.88832815    -0.77700
C338        C  0.42373539  0.44819648  0.88827258     1.03200
C339        C  0.23110251  0.46152153  0.56710571     0.86700
C340        C  0.26503796  0.47409642  0.58010326    -0.53500
C341        C  0.27894865  0.00813695  0.58869391     0.09600
C342        C  0.26137325  0.03685989  0.58282458     0.20600
C343        C  0.19455467  0.46431393  0.57505935    -0.54300
C344        C  0.21214862  0.00637030  0.58558720     0.09700
C345        C  0.25251783  0.50001939  0.55600275    -0.53800
C346        C  0.26807939  0.04023745  0.56489321     0.10300
H347        H  0.27460673  0.45182468  0.58432799     0.14800
H348        H  0.27587588  0.06930047  0.58868960     0.00600
H349        H  0.16339691  0.43499270  0.57761885     0.15100
H350        H  0.25949555  0.49637788  0.54418987     0.14900
C351        C  0.04331812  0.26016839  0.56722353     0.86700
C352        C  0.04354803  0.28896835  0.58057411    -0.53500
C353        C  0.50597862  0.27493669  0.58744264     0.09600
C354        C  0.47132589  0.22935152  0.58092967     0.20600
C355        C  0.02839821  0.21529643  0.57507126    -0.54300
C356        C  0.49279495  0.20223394  0.58279393     0.09700
C357        C  0.00556084  0.25200020  0.55693810    -0.53800
C358        C  0.46888741  0.23517405  0.56333934     0.10300
H359        H  0.07277732  0.31842227  0.58459668     0.14800
H360        H  0.43945167  0.21596275  0.58651158     0.00600
H361        H  0.04837469  0.20106247  0.57552495     0.15100
H362        H  0.00933466  0.26057669  0.54482326     0.14900
C363        C  0.24470542  0.27042355  0.56816943     0.86700
C364        C  0.21881598  0.23436214  0.58036444    -0.53500
C365        C  0.24114393  0.21622258  0.58637433     0.09600
C366        C  0.28625565  0.23495155  0.57905706     0.20600
C367        C  0.28733819  0.30330905  0.57683766    -0.54300
C368        C  0.30838370  0.28404406  0.58311972     0.09700
C369        C  0.25716746  0.24803419  0.55611745    -0.53800
C370        C  0.28007825  0.23093467  0.56145436     0.10300
H371        H  0.18870653  0.22840771  0.58526592     0.14800
H372        H  0.30343601  0.21875305  0.58306649     0.00600
H373        H  0.29579777  0.33639533  0.57984915     0.15100
H374        H  0.24672404  0.24488552  0.54431770     0.14900
Fe375      Fe  0.37235918  0.13545848  0.53323762     1.65800
Fe376      Fe  0.27748955  0.13250941  0.52953690     1.73200
Fe377      Fe  0.37340619  0.23012813  0.52988180     1.54400
O378        O  0.42220880  0.23906886  0.54507307    -0.81500
O379        O  0.27650819  0.16424350  0.50940637    -0.79800
O380        O  0.40654313  0.17274180  0.55259546    -0.84000
O381        O  0.42270831  0.17845932  0.51847601    -0.78800
O382        O  0.33892447  0.23306240  0.54866095    -0.80600
O383        O  0.27499617  0.08357007  0.51533680    -0.83300
C384        C  0.43205721  0.21222418  0.51038191     0.97400
C385        C  0.42919924  0.21443364  0.55361266     1.04900
O386        O  0.34101185  0.16592133  0.53083294    -1.12300
O387        O  0.27074815  0.09739171  0.54985455    -0.74800
O388        O  0.32669448  0.08828570  0.54854008    -0.78200
O389        O  0.41027131  0.23083219  0.51129128    -0.78900
C390        C  0.29099758  0.07946294  0.55457225     0.96300
O391        O  0.34175427  0.09602729  0.51388764    -0.76900
O392        O  0.27192581  0.17735634  0.54331218    -0.82100
C393        C  0.29518779  0.20549847  0.50742577     0.98900
C394        C  0.29815794  0.21221073  0.55077196     1.04900
O395        O  0.33004462  0.23245874  0.51455080    -0.77700
C396        C  0.30245752  0.07568035  0.50947224     1.03200
C397        C  0.42587954  0.30527641  0.71721116     0.02500
C398        C  0.38416388  0.29919247  0.71575125     0.02500
C399        C  0.36621302  0.29489750  0.70085863    -0.18100
C400        C  0.38871834  0.29619245  0.68738478     0.02500
C401        C  0.43088220  0.30330814  0.68882537     0.02500
C402        C  0.44832888  0.30629470  0.70373497    -0.18100
H403        H  0.48068141  0.31222326  0.70481362     0.04500
H404        H  0.33429743  0.29008570  0.69976339     0.04500
C405        C  0.22130698  0.13044206  0.71763286     0.02500
C406        C  0.19633595  0.08403778  0.71581008     0.02500
C407        C  0.18876023  0.06510759  0.70092555    -0.18100
C408        C  0.20395410  0.09121227  0.68746928     0.02500
C409        C  0.22971409  0.13779996  0.68923601     0.02500
C410        C  0.23734024  0.15680297  0.70420098    -0.18100
H411        H  0.25663120  0.19229605  0.70540177     0.04500
H412        H  0.16906296  0.02961723  0.69979767     0.04500
C413        C  0.46746942  0.10358534  0.71209784     0.02500
C414        C  0.42674456  0.06444185  0.71466054     0.02500
C415        C  0.39852022  0.04362175  0.70206278    -0.18100
C416        C  0.41012567  0.06062570  0.68698942     0.02500
C417        C  0.45063453  0.09975757  0.68442897     0.02500
C418        C  0.47922100  0.12045788  0.69694323    -0.18100
H419        H  0.50995014  0.15071613  0.69498154     0.04500
H420        H  0.36738228  0.01381025  0.70397749     0.04500
C421        C  0.36125008  0.27776130  0.64709793     0.20500
C422        C  0.36632075  0.26651718  0.63200595    -0.39300
C423        C  0.35615804  0.28588369  0.61993390     0.19500
C424        C  0.34061032  0.31318262  0.62259575     0.22200
C425        C  0.33657487  0.32541206  0.63778263    -0.39800
C426        C  0.34821228  0.30712444  0.64993511     0.21000
N427        N  0.37163476  0.26583207  0.66038098    -0.33100
C428        C  0.36809977  0.28983537  0.67181793    -0.10700
C429        C  0.35214983  0.31501029  0.66580883    -0.29500
N430        N  0.32708623  0.32164710  0.60916574    -0.46100
C431        C  0.33384382  0.29927286  0.59787047    -0.05400
C432        C  0.35370894  0.27820073  0.60423649    -0.22700
H433        H  0.37720736  0.24405319  0.62982182     0.19100
H434        H  0.32512775  0.34738843  0.63997298     0.17900
H435        H  0.34801488  0.33893823  0.67195853     0.14200
H436        H  0.36062720  0.25561899  0.59854575     0.14000
H437        H  0.38358806  0.24501699  0.66140673     0.32200
H438        H  0.30977365  0.33733350  0.60811387     0.34900
C439        C  0.26486437  0.17660883  0.65114435     0.20500
C440        C  0.27012599  0.16676951  0.63584464    -0.39300
C441        C  0.25367305  0.18137799  0.62421087     0.19500
C442        C  0.23447988  0.20507685  0.62746158     0.22200
C443        C  0.22964066  0.21548532  0.64275445    -0.39800
C444        C  0.24497996  0.19975470  0.65449012     0.21000
N445        N  0.26872927  0.15779779  0.66403438    -0.33100
C446        C  0.24902682  0.16676157  0.67552116    -0.10700
C447        C  0.23577489  0.19474572  0.67019022    -0.29500
N448        N  0.22252114  0.21602463  0.61426624    -0.46100
C449        C  0.23451986  0.19941786  0.60249274    -0.05400
C450        C  0.25335118  0.17689016  0.60834611    -0.22700
H451        H  0.28373729  0.14688155  0.63323901     0.19100
H452        H  0.21288353  0.23232875  0.64535811     0.17900
H453        H  0.21527567  0.20345545  0.67625619     0.14200
H454        H  0.26801730  0.16217505  0.60184483     0.14000
H455        H  0.27811425  0.13475618  0.66445723     0.32200
H456        H  0.21035911  0.23667995  0.61332857     0.34900
C457        C  0.49821766  0.28360212  0.62860004     0.20500
C458        C  0.49505395  0.27006428  0.64414351    -0.39300
C459        C  0.48362122  0.29157818  0.65496607     0.19500
C460        C  0.47617794  0.32430049  0.65059202     0.22200
C461        C  0.47873354  0.33739079  0.63498056    -0.39800
C462        C  0.49000485  0.31572085  0.62413695     0.21000
N463        N  0.50640429  0.26660935  0.61613325    -0.33100
C464        C  0.50301313  0.28752278  0.60357203    -0.10700
C465        C  0.49283523  0.31854141  0.60805764    -0.29500
N466        N  0.46126767  0.33618945  0.66271010    -0.46100
C467        C  0.45765284  0.30989470  0.67478679    -0.05400
C468        C  0.47244954  0.28239772  0.67048461    -0.22700
H469        H  0.98911588  0.23341850  0.64814302     0.19100
H470        H  0.47075994  0.36138113  0.63146919     0.17900
H471        H  0.48684730  0.33913962  0.60057549     0.14200
H472        H  0.47057398  0.25588301  0.67723818     0.14000
H473        H  0.00394259  0.23184016  0.61691876     0.32200
H474        H  0.45046362  0.35808451  0.66238836     0.34900
C475        C  0.45180423  0.14528437  0.61829357     0.20500
C476        C  0.42983770  0.14089175  0.63214514    -0.39300
C477        C  0.44805360  0.13520140  0.64553688     0.19500
C478        C  0.48406383  0.13161477  0.64520056     0.22200
C479        C  0.99993381  0.13005359  0.63134857    -0.39800
C480        C  0.48959393  0.14487095  0.61790615     0.21000
N481        N  0.44471898  0.15839150  0.60466498    -0.33100
C482        C  0.47970233  0.16979465  0.59566829    -0.10700
C483        C  0.00293458  0.15391761  0.60338563    -0.29500
N484        N  0.49245258  0.12242651  0.65949329    -0.46100
C485        C  0.46150574  0.12046190  0.66886686    -0.05400
C486        C  0.43456785  0.13021787  0.66063924    -0.22700
H487        H  0.40154068  0.14355001  0.63254552     0.19100
H488        H  0.02989885  0.13046638  0.63149417     0.17900
H489        H  0.03562834  0.16368371  0.60029812     0.14200
H490        H  0.40674032  0.13039171  0.66493450     0.14000
H491        H  0.41962761  0.16376557  0.60256256     0.32200
H492        H  0.51582230  0.11509089  0.66247916     0.34900
C493        C  0.36162613  0.01663600  0.65016259     0.20500
C494        C  0.36149446  0.00350992  0.63472625    -0.39300
C495        C  0.33571327  0.00997329  0.62418783     0.19500
C496        C  0.31310393  0.02944736  0.62862095     0.22200
C497        C  0.31221760  0.04139454  0.64411607    -0.39800
C498        C  0.33678693  0.03356226  0.65475082     0.21000
N499        N  0.38779045  0.01959883  0.66182021    -0.33100
C500        C  0.37932422  0.03813534  0.67396753    -0.10700
C501        C  0.34668482  0.04603430  0.67011941    -0.29500
N502        N  0.29292087  0.03406503  0.61633945    -0.46100
C503        C  0.30101607  0.01574708  0.60402181    -0.05400
C504        C  0.32779812  0.00040999  0.60849472    -0.22700
H505        H  0.36522842  0.50134253  0.63635641     0.19100
H506        H  0.29458308  0.05675440  0.64756141     0.17900
H507        H  0.33628627  0.06432626  0.67688858     0.14200
H508        H  0.33262898  0.49010596  0.60460262     0.14000
H509        H  0.41274940  0.01335128  0.66109990     0.32200
H510        H  0.27378958  0.04785155  0.61649631     0.34900
C511        C  0.18349343  0.00514538  0.62538787     0.20500
C512        C  0.18684564  0.99750215  0.64125257    -0.39300
C513        C  0.18516590  0.02655659  0.65183031     0.19500
C514        C  0.17889094  0.05965555  0.64699105     0.22200
C515        C  0.17630787  0.06783406  0.63110379    -0.39800
C516        C  0.17990488  0.03995850  0.62048318     0.21000
N517        N  0.19430357  0.47985187  0.60987668    -0.33100
C518        C  0.19270025  0.00945476  0.60039836    -0.10700
C519        C  0.18633215  0.04350925  0.60450599    -0.29500
N520        N  0.18122702  0.08447099  0.65917360    -0.46100
C521        C  0.19162908  0.06895762  0.67181955    -0.05400
C522        C  0.19312786  0.03189210  0.66769329    -0.22700
H523        H  0.20937494  0.46842838  0.64070471     0.19100
H524        H  0.17438834  0.09560980  0.62728607     0.17900
H525        H  0.18980879  0.06963170  0.59707314     0.14200
H526        H  0.20189106  0.01325471  0.67508114     0.14000
H527        H  0.20695777  0.45957237  0.60925844     0.32200
H528        H  0.17717763  0.11124320  0.65873600     0.34900
C529        C  0.46584534  0.34214088  0.75578070     0.20500
C530        C  0.96456613  0.36021475  0.77060513    -0.39300
C531        C  0.98228045  0.34980512  0.78309527     0.19500
C532        C  0.50093101  0.32437237  0.78101270     0.22200
C533        C  0.49506425  0.30061367  0.76719483    -0.39800
C534        C  0.47667105  0.31050024  0.75462250     0.21000
N535        N  0.44942377  0.34606345  0.74236367    -0.33100
C536        C  0.44802778  0.31565913  0.73258076    -0.10700
C537        C  0.46557612  0.29324278  0.73971069    -0.29500
N538        N  0.01656318  0.32055228  0.79477956    -0.46100
C539        C  0.01845813  0.35229240  0.80410736    -0.05400
C540        C  0.99601628  0.37001610  0.79730868    -0.22700
H541        H  0.95668653  0.38543823  0.77142586     0.19100
H542        H  0.50484636  0.27687752  0.76621706     0.17900
H543        H  0.46803708  0.26668641  0.73489648     0.14200
H544        H  0.99393219  0.39746723  0.80136796     0.14000
H545        H  0.93466301  0.36488809  0.74109065     0.32200
H546        H  0.53836254  0.30841654  0.79564804     0.34900
C547        C  0.14772570  0.03589271  0.75214554     0.20500
C548        C  0.12830768  0.03402193  0.76644863    -0.39300
C549        C  0.13629156  0.46936957  0.77224661     0.19500
C550        C  0.17701192  0.49714180  0.77843328     0.22200
C551        C  0.21224963  0.52614850  0.76901629    -0.39800
C552        C  0.17028505  0.01502320  0.74975399     0.21000
N553        N  0.15073249  0.05985377  0.73965233    -0.33100
C554        C  0.17594050  0.05479838  0.72933322    -0.10700
C555        C  0.18798536  0.02626567  0.73506645    -0.29500
N556        N  0.17661332  0.49203280  0.79397599    -0.46100
C557        C  0.13508502  0.46138177  0.79767682    -0.05400
C558        C  0.10910491  0.44679718  0.78441737    -0.22700
H559        H  0.11104005  0.05070579  0.76836527     0.19100
H560        H  0.24374431  0.54936443  0.77384454     0.17900
H561        H  0.21021181  0.01847098  0.72984850     0.14200
H562        H  0.07526819  0.42164639  0.78361860     0.14000
H563        H  0.13918599  0.08104267  0.73866930     0.32200
H564        H  0.20292362  0.50796636  0.80156481     0.34900
C565        C  0.03674037  0.16313235  0.77482321     0.20500
C566        C  0.51686513  0.16862420  0.76443959    -0.39300
C567        C  0.51545418  0.15432011  0.74909992     0.19500
C568        C  0.03364684  0.13779266  0.74424537     0.22200
C569        C  0.05831486  0.12996844  0.75483341    -0.39800
C570        C  0.05837889  0.14273436  0.77025867     0.21000
N571        N  0.04247141  0.17237194  0.79017485    -0.33100
C572        C  0.06709618  0.15671114  0.79545731    -0.10700
C573        C  0.07714716  0.13761935  0.78334339    -0.29500
N574        N  0.02356494  0.12275577  0.72955222    -0.46100
C575        C  0.49717952  0.12789889  0.72521260    -0.05400
C576        C  0.48846551  0.14932034  0.73689567    -0.22700
H577        H  0.49775597  0.18211721  0.76815069     0.19100
H578        H  0.07477536  0.11334627  0.75144140     0.17900
H579        H  0.09650009  0.12280709  0.78390304     0.14200
H580        H  0.46256069  0.15580180  0.73707352     0.14000
H581        H  0.53595458  0.18688938  0.79664114     0.32200
H582        H  0.03359799  0.10396440  0.72376816     0.34900
C583        C  0.22892695  0.15121945  0.75872320     0.20500
C584        C  0.22316326  0.13597567  0.77419596    -0.39300
C585        C  0.20614470  0.15336143  0.78462901     0.19500
C586        C  0.19704079  0.18473814  0.78005027     0.22200
C587        C  0.20200725  0.19932861  0.76453872    -0.39800
C588        C  0.21769505  0.18089266  0.75400880     0.21000
N589        N  0.23789864  0.13451076  0.74630712    -0.33100
C590        C  0.22968299  0.15122483  0.73346063    -0.10700
C591        C  0.21854952  0.18166843  0.73787902    -0.29500
N592        N  0.17859584  0.19396674  0.79176235    -0.46100
C593        C  0.17457281  0.16752288  0.80382775    -0.05400
C594        C  0.19144699  0.14158984  0.79981353    -0.22700
H595        H  0.22870471  0.11017122  0.77759549     0.19100
H596        H  0.19170615  0.22129308  0.76075445     0.17900
H597        H  0.20717284  0.19779547  0.73036009     0.14200
H598        H  0.19099460  0.11606099  0.80673907     0.14000
H599        H  0.24538381  0.11005714  0.74660335     0.32200
H600        H  0.16678148  0.21499389  0.79126091     0.34900
C601        C  0.34993618  0.50783917  0.78174934     0.20500
C602        C  0.34617747  0.00894961  0.76468047    -0.39300
C603        C  0.37595900  0.02303420  0.75238076     0.19500
C604        C  0.39358339  0.53338138  0.75392596     0.22200
C605        C  0.41281259  0.52441053  0.76625686    -0.39800
C606        C  0.38972032  0.51197530  0.78017706     0.21000
N607        N  0.33218282  0.48931544  0.79557789    -0.33100
C608        C  0.36096474  0.48146637  0.80271005    -0.10700
C609        C  0.39775874  0.49666668  0.79354505    -0.29500
N610        N  0.43896592  0.04280597  0.74094959    -0.46100
C611        C  0.41266045  0.04543235  0.73043521    -0.05400
C612        C  0.37249448  0.03212925  0.73703142    -0.22700
H613        H  0.31332459  0.00102589  0.76302418     0.19100
H614        H  0.44325781  0.52608524  0.76499125     0.17900
H615        H  0.42527289  0.49339550  0.79556715     0.14200
H616        H  0.34528646  0.03131037  0.73153712     0.14000
H617        H  0.30516163  0.97214646  0.79348473     0.32200
H618        H  0.43839974  0.54969356  0.73547313     0.34900
C619        C  0.33369833  0.35016267  0.77352977     0.20500
C620        C  0.33601060  0.35825198  0.75748012    -0.39300
C621        C  0.34089006  0.32926675  0.74798654     0.19500
C622        C  0.34347407  0.29482923  0.75404029     0.22200
C623        C  0.34051363  0.28632354  0.77014156    -0.39800
C624        C  0.33546482  0.31533097  0.77966427     0.21000
N625        N  0.33305629  0.37545650  0.78492486    -0.33100
C626        C  0.33427069  0.35679942  0.79847895    -0.10700
C627        C  0.33531709  0.31885338  0.79572271    -0.29500
N628        N  0.35484558  0.27647159  0.74286261    -0.46100
C629        C  0.36002697  0.29966489  0.72964757    -0.05400
C630        C  0.35053261  0.33216408  0.73235099    -0.22700
H631        H  0.33638957  0.38656792  0.75278990     0.19100
H632        H  0.34420960  0.26049428  0.77495200     0.17900
H633        H  0.33771866  0.29798612  0.80426293     0.14200
H634        H  0.35539092  0.35791359  0.72442348     0.14000
H635        H  0.33271437  0.40429123  0.78355442     0.32200
H636        H  0.36241883  0.25229373  0.74443126     0.34900
C637        C  0.02405857  0.11412951  0.31299196     0.20500
C638        C  0.02463942  0.09842217  0.29816038    -0.39300
C639        C  0.01049050  0.11388768  0.28602238     0.19500
C640        C  0.49111100  0.14122836  0.28809086     0.22200
C641        C  0.49152695  0.15872646  0.30281280    -0.39800
C642        C  0.01148590  0.14403472  0.31548795     0.21000
N643        N  0.03779289  0.10560670  0.32622280    -0.33100
C644        C  0.03630292  0.13192171  0.33721376    -0.10700
C645        C  0.01884952  0.15555175  0.33105741    -0.29500
N646        N  0.47386400  0.14521017  0.27477349    -0.46100
C647        C  0.47761020  0.11910847  0.26420321    -0.05400
C648        C  0.00259343  0.10085321  0.27077319    -0.22700
H649        H  0.03481594  0.07526926  0.29624035     0.19100
H650        H  0.48032458  0.18110815  0.30452752     0.17900
H651        H  0.51238927  0.18368117  0.33605019     0.14200
H652        H  0.00755531  0.07642675  0.26547976     0.14000
H653        H  0.05009903  0.08513799  0.32744521     0.32200
H654        H  0.45681060  0.16110374  0.27346305     0.34900
C655        C  0.40718829  0.49342219  0.31908269     0.20500
C656        C  0.42100717  0.48994906  0.30424966    -0.39300
C657        C  0.40727649  0.50532392  0.29193552     0.19500
C658        C  0.38212015  0.52331818  0.29417056     0.22200
C659        C  0.36852440  0.52719584  0.30902882    -0.39800
C660        C  0.38186202  0.51135446  0.32139563     0.21000
N661        N  0.40875764  0.47334918  0.33203118    -0.33100
C662        C  0.38313035  0.47709699  0.34251785    -0.10700
C663        C  0.36714529  0.50210460  0.33652334    -0.29500
N664        N  0.33556987  0.00719722  0.27458453    -0.46100
C665        C  0.36675873  0.00798321  0.26565671    -0.05400
C666        C  0.38824054  0.99138414  0.27393797    -0.22700
H667        H  0.43935189  0.47439735  0.30235443     0.19100
H668        H  0.34741538  0.53967775  0.31074951     0.17900
H669        H  0.34243264  0.50643628  0.34161183     0.15400
H670        H  0.41566918  0.98950296  0.27031365     0.14000
H671        H  0.42148104  0.45316931  0.33296692     0.32200
H672        H  0.31605047  0.01966120  0.27186310     0.34900
C673        C  0.47290080  0.35036547  0.29368323     0.20500
C674        C  0.46844467  0.35851155  0.30934351    -0.39300
C675        C  0.98556615  0.34519459  0.32114240     0.19500
C676        C  0.01082301  0.32840521  0.31689901     0.22200
C677        C  0.01358995  0.31757223  0.30141405    -0.39800
C678        C  0.99071473  0.32664828  0.29044562     0.21000
N679        N  0.45478492  0.35714874  0.28123572    -0.33100
C680        C  0.46513729  0.34128383  0.26875698    -0.10700
C681        C  0.98663059  0.32041961  0.27454093    -0.29500
N682        N  0.03640016  0.33167900  0.32877226    -0.46100
C683        C  0.02777784  0.35102290  0.34059218    -0.05400
C684        C  0.99456292  0.35782699  0.33652602    -0.22700
H685        H  0.44994629  0.37295889  0.31274975     0.19100
H686        H  0.03379602  0.30504507  0.29805740     0.17900
H687        H  0.99904796  0.30450504  0.26745759     0.14200
H688        H  0.48737862  0.37662340  0.34257597     0.14000
H689        H  0.43496041  0.37012183  0.28141153     0.32200
H690        H  0.06201001  0.32638039  0.32822189     0.34900
C691        C  0.34155333  0.32539127  0.29095811     0.20500
C692        C  0.34136550  0.31639120  0.30688526    -0.39300
C693        C  0.33422218  0.34254146  0.31709855     0.19500
C694        C  0.32663342  0.37442858  0.31182599     0.22200
C695        C  0.32774347  0.38412342  0.29589288    -0.39800
C696        C  0.33621417  0.35883061  0.28567824     0.21000
N697        N  0.35193248  0.30807293  0.27915006    -0.33100
C698        C  0.35476359  0.33143539  0.26628817    -0.10700
C699        C  0.34514777  0.36347302  0.26988496    -0.29500
N700        N  0.32327247  0.39643107  0.32386872    -0.46100
C701        C  0.33103167  0.38016652  0.33691899    -0.05400
C702        C  0.33689578  0.34563600  0.33312761    -0.22700
H703        H  0.34841013  0.29222999  0.31104587     0.19100
H704        H  0.32456731  0.41096203  0.29182845     0.17900
H705        H  0.34715983  0.38852677  0.26222775     0.14200
H706        H  0.34504473  0.32734842  0.34096002     0.14000
H707        H  0.36037162  0.28436181  0.28001132     0.32200
H708        H  0.31709298  0.42173624  0.32313005     0.34900
C709        C  0.15103500  0.97034084  0.28264783     0.20500
C710        C  0.17068085  0.95989613  0.29472119    -0.39300
C711        C  0.14477748  0.44745110  0.31034196     0.19500
C712        C  0.10447265  0.44249217  0.31016561     0.22200
C713        C  0.08571459  0.44680891  0.29661722    -0.39800
C714        C  0.11409627  0.97129536  0.28523477     0.21000
N715        N  0.16632178  0.98541268  0.26820920    -0.33100
C716        C  0.13881524  0.99614242  0.26169380    -0.10700
C717        C  0.10472290  0.98539341  0.27186905    -0.29500
N718        N  0.08703655  0.43302198  0.32435257    -0.46100
C719        C  0.11431648  0.42798794  0.33361172    -0.05400
C720        C  0.15162237  0.43808133  0.32536622    -0.22700
H721        H  0.19923860  0.95832931  0.29279448     0.19100
H722        H  0.05412796  0.44296942  0.29661932     0.17900
H723        H  0.07930640  0.99231515  0.27073815     0.14200
H724        H  0.17917489  0.43719147  0.32961172     0.14000
H725        H  0.19602195  0.99236836  0.26382512     0.32200
H726        H  0.05840154  0.43097127  0.32750700     0.34900
C727        C  0.15566517  0.14704959  0.28891921     0.20500
C728        C  0.14671454  0.17285679  0.29858934    -0.39300
C729        C  0.14422713  0.16360913  0.31455426     0.19500
C730        C  0.14955274  0.13067660  0.32045310     0.22200
C731        C  0.15886295  0.10511797  0.31079259    -0.39800
C732        C  0.16186755  0.11475478  0.29486262     0.21000
N733        N  0.15684145  0.14730462  0.27327033    -0.33100
C734        C  0.16385918  0.11493474  0.26929903    -0.10700
C735        C  0.16761548  0.09427895  0.28242519    -0.29500
N736        N  0.13908312  0.12390757  0.33562219    -0.46100
C737        C  0.12622907  0.15212959  0.33933286    -0.05400
C738        C  0.13048365  0.17847982  0.32661255    -0.22700
H739        H  0.14016698  0.19695632  0.29396970     0.19100
H740        H  0.16153062  0.07830359  0.31525444     0.17900
H741        H  0.17310071  0.06739777  0.28283665     0.14200
H742        H  0.11989096  0.20161222  0.32583120     0.14000
H743        H  0.15179892  0.16717175  0.26576160     0.32200
H744        H  0.13654361  0.09866519  0.34257096     0.34900
C745        C  0.34869261  0.46880724  0.45120716     0.20500
C746        C  0.35801590  0.44350675  0.44135002    -0.39300
C747        C  0.36265188  0.45465598  0.42546874     0.19500
C748        C  0.35727084  0.48767376  0.41977024     0.22200
C749        C  0.34922509  0.51378061  0.42967626    -0.39800
C750        C  0.34568725  0.50339194  0.44557278     0.21000
N751        N  0.33730389  0.46135148  0.46633536    -0.33100
C752        C  0.32808881  0.49216836  0.47042379    -0.10700
C753        C  0.33326923  0.51907631  0.45778713    -0.29500
N754        N  0.35569058  0.48670198  0.40410626    -0.46100
C755        C  0.35955081  0.45246033  0.39971297    -0.05400
C756        C  0.36612097  0.43319133  0.41277684    -0.22700
H757        H  0.33820843  0.90609131  0.44054397     0.19100
H758        H  0.34363921  0.53872829  0.42524345     0.17900
H759        H  0.32480244  0.54390477  0.45725493     0.14200
H760        H  0.36896758  0.40457847  0.41306239     0.14000
H761        H  0.32773061  0.93374697  0.46935884     0.32200
H762        H  0.34857984  0.50567178  0.39692915     0.34900
C763        C  0.20065369  0.44139100  0.43908183     0.20500
C764        C  0.18692617  0.41086925  0.42684029    -0.39300
C765        C  0.18030665  0.42507938  0.41243582     0.19500
C766        C  0.18750614  0.46683346  0.41029597     0.22200
C767        C  0.20090533  0.49716505  0.42260970    -0.39800
C768        C  0.20697049  0.48271476  0.43705200     0.21000
N769        N  0.20860450  0.43565962  0.45390965    -0.33100
C770        C  0.22010018  0.47363952  0.46150247    -0.10700
C771        C  0.21907448  0.50362546  0.45128428    -0.29500
N772        N  0.17283042  0.47008944  0.39626236    -0.46100
C773        C  0.15447923  0.42964598  0.38966896    -0.05400
C774        C  0.15979178  0.40116394  0.39923901    -0.22700
H775        H  0.18007817  0.37779374  0.42857098     0.19100
H776        H  0.21600329  0.03197400  0.42087277     0.17900
H777        H  0.23635188  0.04153935  0.45402588     0.14200
H778        H  0.14512330  0.36606264  0.39770483     0.14000
H779        H  0.20690647  0.40767607  0.45841959     0.32200
H780        H  0.16994099  0.49613695  0.39238646     0.34900
C781        C  0.14174699  0.19184290  0.41970991     0.20500
C782        C  0.14880408  0.21702846  0.43307471    -0.39300
C783        C  0.15751148  0.20145531  0.44665398     0.19500
C784        C  0.16037497  0.16445094  0.44693463     0.22200
C785        C  0.15224559  0.13850602  0.43354942    -0.39800
C786        C  0.14224838  0.15341721  0.41995230     0.21000
N787        N  0.13107908  0.19892128  0.40557763    -0.33100
C788        C  0.12240490  0.16371710  0.39682725    -0.10700
C789        C  0.12991239  0.13494623  0.40527895    -0.29500
N790        N  0.17451590  0.16011438  0.46094352    -0.46100
C791        C  0.18078458  0.19480558  0.46963766    -0.05400
C792        C  0.16891157  0.22023594  0.46108660    -0.22700
H793        H  0.14782411  0.24678264  0.43289524     0.19100
H794        H  0.15380765  0.10910159  0.43368662     0.17900
H795        H  0.12416230  0.10340400  0.40154043     0.14200
H796        H  0.17186239  0.25094430  0.46422161     0.14000
H797        H  0.12831003  0.22542878  0.40227054     0.32200
H798        H  0.18270374  0.13704794  0.46386613     0.34900
C799        C  0.27354512  0.33896050  0.41654326     0.20500
C800        C  0.26322775  0.34398023  0.43178290    -0.39300
C801        C  0.27273373  0.32267315  0.44330889     0.19500
C802        C  0.28999625  0.29720721  0.43991576     0.22200
C803        C  0.29946183  0.29131821  0.42465777    -0.39800
C804        C  0.29129312  0.31379799  0.41313188     0.21000
N805        N  0.27710121  0.36396224  0.40432240    -0.33100
C806        C  0.29917547  0.35642507  0.39336830    -0.10700
C807        C  0.30680566  0.32383220  0.39814252    -0.29500
N808        N  0.29710856  0.28144472  0.45299562    -0.46100
C809        C  0.28416780  0.29693406  0.46481789    -0.05400
C810        C  0.26893372  0.32293613  0.45919404    -0.22700
H811        H  0.25169589  0.36559182  0.43457992     0.19100
H812        H  0.31503807  0.27326704  0.42209183     0.17900
H813        H  0.32720983  0.31433513  0.39246342     0.14200
H814        H  0.25518915  0.33841995  0.46579151     0.14000
H815        H  0.27037752  0.38901393  0.40425364     0.32200
H816        H  0.30787370  0.25956657  0.45374190     0.34900
C817        C  0.01200040  0.31616466  0.44484807     0.20500
C818        C  0.00167518  0.30285063  0.42929900    -0.39300
C819        C  0.02665397  0.33478125  0.41815244     0.19500
C820        C  0.05829949  0.37720329  0.42219708     0.22200
C821        C  0.06990045  0.39012590  0.43776050    -0.39800
C822        C  0.04600624  0.35757217  0.44894701     0.21000
N823        N  0.99577845  0.29043833  0.45742114    -0.33100
C824        C  0.02073009  0.31460579  0.46957017    -0.10700
C825        C  0.05245245  0.35687084  0.46479328    -0.29500
N826        N  0.07763269  0.40107954  0.40944331    -0.46100
C827        C  0.06050344  0.37302109  0.39719960    -0.05400
C828        C  0.02772160  0.33145991  0.40221557    -0.22700
H829        H  0.47703239  0.27311285  0.42714245     0.19100
H830        H  0.09688883  0.42238221  0.44086063     0.17900
H831        H  0.07846253  0.38237634  0.47171084     0.14200
H832        H  0.00870908  0.30214835  0.39525983     0.14000
H833        H  0.47259793  0.26251624  0.45863489     0.32200
H834        H  0.10076412  0.43459638  0.40925723     0.34900
C835        C  0.02136989  0.14987907  0.41872551     0.20500
C836        C  0.01012036  0.13580823  0.43424114    -0.39300
C837        C  0.01677128  0.16853485  0.44496638     0.19500
C838        C  0.03552686  0.21209168  0.44061321     0.22200
C839        C  0.04541943  0.22582373  0.42511568    -0.39800
C840        C  0.03657414  0.19285224  0.41432014     0.21000
N841        N  0.02282861  0.12682097  0.40662843    -0.33100
C842        C  0.03824745  0.15522342  0.39444146    -0.10700
C843        C  0.04588289  0.19628064  0.39871323    -0.29500
N844        N  0.04029198  0.23722677  0.45289997    -0.46100
C845        C  0.02185983  0.20950039  0.46510500    -0.05400
C846        C  0.00714090  0.16618583  0.46066029    -0.22700
H847        H  0.99751394  0.10207506  0.43771230     0.19100
H848        H  0.05940486  0.25986479  0.42173131     0.17900
H849        H  0.06193618  0.22618213  0.39187961     0.14200
H850        H  0.99067951  0.13694881  0.46781371     0.14000
H851        H  0.01729522  0.09504037  0.40695594     0.32200
H852        H  0.05408618  0.27121765  0.45277374     0.34900
C853        C  0.41066092  0.12682333  0.10673111     0.20500
C854        C  0.39418552  0.14183973  0.09517835    -0.39300
C855        C  0.40845702  0.14231524  0.07999461     0.19500
C856        C  0.43651369  0.12825391  0.07657597     0.22200
C857        C  0.95225974  0.11129139  0.08841833    -0.39800
C858        C  0.43883991  0.11309145  0.10333131     0.21000
N859        N  0.40335796  0.12465741  0.12209042    -0.33100
C860        C  0.42700656  0.10929870  0.12858200    -0.10700
C861        C  0.44974348  0.10194391  0.11716659    -0.29500
N862        N  0.95378280  0.14058161  0.06249254    -0.46100
C863        C  0.43413734  0.16207642  0.05623881    -0.05400
C864        C  0.40590729  0.16321162  0.06694381    -0.22700
H865        H  0.37370800  0.15451739  0.09792792     0.19100
H866        H  0.97432142  0.10048444  0.08578914     0.17900
H867        H  0.96777842  0.08427352  0.11881949     0.14200
H868        H  0.39101454  0.18258725  0.06614972     0.14000
H869        H  0.38289281  0.13260241  0.12767422     0.32200
H870        H  0.97801300  0.13707953  0.05754132     0.34900
C871        C  0.36969065  0.31242592  0.10619716     0.20500
C872        C  0.37193831  0.33095745  0.09154202    -0.39300
C873        C  0.35636001  0.30143719  0.07896040     0.19500
C874        C  0.34008992  0.25690246  0.08092733     0.22200
C875        C  0.33837197  0.23860858  0.09552470    -0.39800
C876        C  0.35360632  0.26803370  0.10803093     0.21000
N877        N  0.38294659  0.33339350  0.11993530    -0.33100
C878        C  0.37600923  0.30218187  0.13056441    -0.10700
C879        C  0.35695984  0.26086886  0.12352289    -0.29500
N880        N  0.31974343  0.23453910  0.06801749    -0.46100
C881        C  0.32145599  0.26451051  0.05790694    -0.05400
C882        C  0.34580695  0.30698922  0.06403171    -0.22700
H883        H  0.38318351  0.36545382  0.09014282     0.19100
H884        H  0.32439660  0.20361900  0.09712088     0.17900
H885        H  0.34910122  0.23001912  0.12878413     0.14200
H886        H  0.34868307  0.33649707  0.05931213     0.14000
H887        H  0.39890613  0.36733577  0.12168705     0.32200
H888        H  0.30065626  0.20032497  0.06695311     0.34900
C889        C  0.49448890  0.28733837  0.11340966     0.20500
C890        C  0.00443018  0.25685550  0.10575643    -0.39300
C891        C  0.49764865  0.26616943  0.08738612     0.19500
C892        C  0.48772805  0.29609658  0.08177149     0.22200
C893        C  0.48228280  0.32389132  0.09175235    -0.39800
C894        C  0.48676435  0.31880838  0.10771894     0.21000
N895        N  0.49127251  0.28507524  0.12905579    -0.33100
C896        C  0.48257533  0.31613929  0.13337189    -0.10700
C897        C  0.47997634  0.33802814  0.12035436    -0.29500
N898        N  0.48150465  0.29189452  0.06626443    -0.46100
C899        C  0.48721910  0.25882131  0.06189580    -0.05400
C900        C  0.00529856  0.24301969  0.07688773    -0.22700
H901        H  0.00654158  0.22944869  0.10991837     0.19100
H902        H  0.47357458  0.34668343  0.08744719     0.17900
H903        H  0.47041343  0.36200949  0.12010876     0.14200
H904        H  0.00964113  0.21537070  0.07692490     0.14000
H905        H  0.99089256  0.25529223  0.13848748     0.32200
H906        H  0.47155862  0.30878829  0.05921972     0.34900
C907        C  0.16752863  0.16013663  0.11192391     0.20500
C908        C  0.15831235  0.14710288  0.09628340    -0.39300
C909        C  0.18694511  0.17750702  0.08532806     0.19500
C910        C  0.22103255  0.21849533  0.08958337     0.22200
C911        C  0.23125281  0.23104890  0.10524399    -0.39800
C912        C  0.20367294  0.19982919  0.11626799     0.21000
N913        N  0.14919545  0.13428054  0.12439120    -0.33100
C914        C  0.17485189  0.15641317  0.13670957    -0.10700
C915        C  0.20902645  0.19772349  0.13212367    -0.29500
N916        N  0.24394758  0.24088940  0.07703394    -0.46100
C917        C  0.22635892  0.21307862  0.06473107    -0.05400
C918        C  0.18997114  0.17336355  0.06949938    -0.22700
H919        H  0.13230398  0.11454732  0.09296585     0.19100
H920        H  0.26015183  0.26162907  0.10858318     0.17900
H921        H  0.23662360  0.22084713  0.13905383     0.14200
H922        H  0.16955742  0.14452145  0.06249785     0.14000
H923        H  0.12426480  0.10137017  0.12420446     0.32200
H924        H  0.26969691  0.27341942  0.07701867     0.34900
C925        C  0.31770040  0.98846285  0.11312569     0.20500
C926        C  0.32206408  0.97673395  0.09783811    -0.39300
C927        C  0.31052751  0.99542252  0.08573961     0.19500
C928        C  0.29831679  0.02525704  0.08880660     0.22200
C929        C  0.29198207  0.03516469  0.10389757    -0.39800
C930        C  0.30098576  0.01470822  0.11586461     0.21000
N931        N  0.33371001  0.98249152  0.12645581    -0.33100
C932        C  0.32712781  0.00532619  0.13766091    -0.10700
C933        C  0.30416595  0.02321932  0.13147181    -0.29500
N934        N  0.29216051  0.04111184  0.07564193    -0.46100
C935        C  0.29591236  0.01833836  0.06383439    -0.05400
C936        C  0.30894656  0.99036953  0.06966792    -0.22700
H937        H  0.33470475  0.95583506  0.09553170     0.19100
H938        H  0.28200799  0.05833387  0.10616987     0.17900
H939        H  0.29710050  0.04586196  0.13702857     0.14200
H940        H  0.32180412  0.47222320  0.06382292     0.14000
H941        H  0.35331162  0.96928141  0.12732881     0.32200
H942        H  0.28636435  0.06658693  0.07492549     0.34900
C943        C  0.18738517  0.00769624  0.08037965     0.20500
C944        C  0.17075341  0.98912137  0.09511716    -0.39300
C945        C  0.17385382  0.01850815  0.10669498     0.19500
C946        C  0.19377881  0.06309988  0.10386824     0.22200
C947        C  0.20882849  0.08136571  0.08906784    -0.39800
C948        C  0.20398655  0.05181929  0.07735520     0.21000
N949        N  0.19506073  0.98874445  0.06829802    -0.33100
C950        C  0.21630215  0.02090189  0.05749310    -0.10700
C951        C  0.22081584  0.06025521  0.06249882    -0.29500
N952        N  0.19679183  0.08478526  0.11698684    -0.46100
C953        C  0.17660413  0.05394782  0.12824387    -0.05400
C954        C  0.16180361  0.01193693  0.12225097    -0.22700
H955        H  0.15801094  0.95471786  0.09755699     0.19100
H956        H  0.22483194  0.11640350  0.08697729     0.17900
H957        H  0.24005026  0.09223310  0.05707532     0.14200
H958        H  0.14504456  0.98098245  0.12845523     0.14000
H959        H  0.19001715  0.95715932  0.06803393     0.32200
H960        H  0.21182686  0.11877917  0.11811679     0.34900
C961        C  0.13629470  0.18449985  0.96212627     0.20500
C962        C  0.13476047  0.19703295  0.97741469    -0.39300
C963        C  0.15757654  0.18814755  0.98841821     0.19500
C964        C  0.18133180  0.16952098  0.98436118     0.22200
C965        C  0.18197133  0.15595311  0.96909875    -0.39800
C966        C  0.15811447  0.16378400  0.95816899     0.21000
N967        N  0.11723444  0.18945500  0.94962786    -0.33100
C968        C  0.12579898  0.17063972  0.93764931    -0.10700
C969        C  0.15136670  0.15428966  0.94249983    -0.29500
N970        N  0.20664769  0.17232119  0.99623788    -0.46100
C971        C  0.19900298  0.19292506  0.00786708    -0.05400
C972        C  0.16724149  0.20164598  0.00365242    -0.22700
H973        H  0.11809461  0.21372076  0.98043050     0.19100
H974        H  0.20073305  0.14164664  0.96588763     0.17900
H975        H  0.16269712  0.13706375  0.93558888     0.14200
H976        H  0.15792863  0.22158110  0.00995103     0.14000
H977        H  0.09785331  0.20299517  0.94946970     0.32200
H978        H  0.23094180  0.16503462  0.99590305     0.34900
C979        C  0.99311162  0.15016742  0.95428568     0.20500
C980        C  0.98670934  0.13652429  0.96991136    -0.39300
C981        C  0.97691999  0.16058053  0.98019244     0.19500
C982        C  0.97236066  0.19467466  0.97518288     0.22200
C983        C  0.97944830  0.20883448  0.95958242    -0.39800
C984        C  0.99065161  0.18567322  0.94937513     0.21000
N985        N  0.00759881  0.13589140  0.94275900    -0.33100
C986        C  0.01552566  0.16296740  0.93048173    -0.10700
C987        C  0.00543806  0.19459835  0.93416637    -0.29500
N988        N  0.45600782  0.20326526  0.98608004    -0.46100
C989        C  0.97018898  0.19502893  0.00037781    -0.05400
C990        C  0.97525875  0.16015403  0.99626687    -0.22700
H991        H  0.99157075  0.11073188  0.97392930     0.19100
H992        H  0.46483950  0.22348902  0.95437487     0.17900
H993        H  0.01085819  0.22205730  0.92706272     0.14200
H994        H  0.98098816  0.13985499  0.00400970     0.14000
H995        H  0.01507711  0.11145409  0.94357593     0.32200
H996        H  0.44833315  0.22750173  0.98525665     0.34900
C997        C  0.31660251  0.28914243  0.97925319     0.20500
C998        C  0.34443942  0.30094256  0.96631696    -0.39300
C999        C  0.33051939  0.31177828  0.95261473     0.19500
C1000       C  0.29120845  0.30908861  0.95184811     0.22200
C1001       C  0.26451166  0.29901667  0.96480817    -0.39800
C1002       C  0.27915377  0.29006152  0.97847837     0.21000
N1003       N  0.32116991  0.27646691  0.99359043    -0.33100
C1004       C  0.28623377  0.26958123  0.00183865    -0.10700
C1005       C  0.26078932  0.27991967  0.99289611    -0.29500
N1006       N  0.28633054  0.32387985  0.93819467    -0.46100
C1007       C  0.32391515  0.33935439  0.93034413    -0.05400
C1008       C  0.35190686  0.33100415  0.93880154    -0.22700
H1009       H  0.37509616  0.30284118  0.96699558     0.19100
H1010       H  0.23493551  0.29936781  0.96438336     0.17900
H1011       H  0.23192476  0.27924917  0.99634427     0.14200
H1012       H  0.38526418  0.34239894  0.93614083     0.14000
H1013       H  0.34545275  0.27124335  0.99732843     0.32200
H1014       H  0.26013527  0.32680016  0.93521221     0.34900
C1015       C  0.34137790  0.48694909  0.98844603     0.20500
C1016       C  0.33700447  0.45314717  0.97883657    -0.39300
C1017       C  0.34615816  0.46346538  0.96302993     0.19500
C1018       C  0.35959101  0.50461302  0.95705276     0.22200
C1019       C  0.36330234  0.53851845  0.96665491    -0.39800
C1020       C  0.35319206  0.52786090  0.98255137     0.21000
N1021       N  0.32794427  0.48269112  0.00327865    -0.33100
C1022       C  0.32903748  0.52018482  0.00683154    -0.10700
C1023       C  0.34579783  0.54970962  0.99428827    -0.29500
N1024       N  0.36477619  0.50496598  0.94143206    -0.46100
C1025       C  0.35356751  0.46333672  0.93752094    -0.05400
C1026       C  0.34187152  0.43691107  0.95074537    -0.22700
H1027       H  0.32510558  0.42031440  0.98322417     0.19100
H1028       H  0.37130808  0.57006017  0.96198007     0.17900
H1029       H  0.34700816  0.58051007  0.99321041     0.14200
H1030       H  0.33143553  0.40261999  0.95138587     0.14000
H1031       H  0.31322063  0.45373885  0.00982477     0.32200
H1032       H  0.37399077  0.53133794  0.93387403     0.34900
C1033       C  0.06286717  0.33658902  0.95818084     0.20500
C1034       C  0.07363459  0.31684015  0.96994309    -0.39300
C1035       C  0.05515652  0.31382039  0.98451861     0.19500
C1036       C  0.02781569  0.32918576  0.98719379     0.22200
C1037       C  0.01706342  0.34900281  0.97537589    -0.39800
C1038       C  0.03567934  0.35206723  0.96077776     0.21000
N1039       N  0.07704155  0.34406877  0.94345028    -0.33100
C1040       C  0.05932425  0.36509417  0.93655046    -0.10700
C1041       C  0.03273973  0.37008641  0.94698898    -0.29500
N1042       N  0.00920672  0.31618546  0.00126537    -0.46100
C1043       C  0.02383305  0.29135013  0.00734666    -0.05400
C1044       C  0.05369792  0.29043294  0.99745961    -0.22700
H1045       H  0.09381780  0.30347823  0.96776897     0.19100
H1046       H  0.99480496  0.35998630  0.97728289     0.17900
H1047       H  0.01581874  0.38713529  0.94509360     0.14200
H1048       H  0.06751420  0.27014145  0.99862303     0.14000
H1049       H  0.09861797  0.33643908  0.93862447     0.32200
H1050       H  0.98408959  0.31924140  0.00559041     0.34900
C1051       C  0.19747610  0.50871610  0.95134535     0.20500
C1052       C  0.20254505  0.53199264  0.96521447    -0.39300
C1053       C  0.22099663  0.52228794  0.97779907     0.19500
C1054       C  0.23233090  0.49106460  0.97662267     0.22200
C1055       C  0.22822863  0.46867785  0.96277862    -0.39800
C1056       C  0.21071191  0.47896025  0.95020363     0.21000
N1057       N  0.17564512  0.50724372  0.93844849    -0.33100
C1058       C  0.17463661  0.47596272  0.92914944    -0.10700
C1059       C  0.19746240  0.45875152  0.93599256    -0.29500
N1060       N  0.24634852  0.48541712  0.99028673    -0.46100
C1061       C  0.24650264  0.51486448  0.00023323    -0.05400
C1062       C  0.22991280  0.53796047  0.99294189    -0.22700
H1063       H  0.19162522  0.55479422  0.96627792     0.19100
H1064       H  0.23667822  0.44386375  0.96201679     0.17900
H1065       H  0.20016499  0.43165279  0.93194954     0.14200
H1066       H  0.22563588  0.56317520  0.99795112     0.14000
H1067       H  0.15855801  0.52301095  0.93687223     0.32200
H1068       H  0.25420651  0.46186922  0.99270940     0.34900
C1069       C  0.07325313  0.93395618  0.90052282     0.86700
C1070       C  0.04661599  0.90053091  0.91330306    -0.53500
C1071       C  0.06786665  0.88250356  0.92027974     0.09600
C1072       C  0.11318129  0.89896713  0.91334164     0.20600
C1073       C  0.11607418  0.96762298  0.90876637    -0.54300
C1074       C  0.13640262  0.94891794  0.91590945     0.09700
C1075       C  0.08482371  0.90866030  0.88943455    -0.53800
C1076       C  0.10718519  0.89196902  0.89570153     0.10300
H1077       H  0.01569143  0.89463236  0.91728263     0.14800
H1078       H  0.12973659  0.88323994  0.91837570     0.00600
H1079       H  0.12657697  0.00200000  0.91021242     0.15100
H1080       H  0.07509541  0.90386577  0.87749135     0.14900
C1081       C  0.37874003  0.93334003  0.89947968     0.86700
C1082       C  0.37971066  0.96526470  0.91179416    -0.53500
C1083       C  0.34220636  0.94792359  0.92032597     0.09600
C1084       C  0.30694548  0.90063208  0.91525004     0.20600
C1085       C  0.36696521  0.89145484  0.90894787    -0.54300
C1086       C  0.32966178  0.87474533  0.91749303     0.09700
C1087       C  0.33889460  0.92082415  0.88976672    -0.53800
C1088       C  0.30111479  0.90222195  0.89754365     0.10300
H1089       H  0.40887478  0.99631726  0.91468422     0.14800
H1090       H  0.27625690  0.88816161  0.92161413     0.00600
H1091       H  0.38798735  0.87847948  0.90976595     0.15100
H1092       H  0.34049856  0.92694434  0.87753521     0.14900
C1093       C  0.06359729  0.62280690  0.89978631     0.86700
C1094       C  0.09511343  0.63105635  0.91318865    -0.53500
C1095       C  0.10808561  0.66942762  0.92121512     0.09600
C1096       C  0.08927233  0.69633497  0.91461208     0.20600
C1097       C  0.02673684  0.62524051  0.90755980    -0.54300
C1098       C  0.04009965  0.66322731  0.91567836     0.09700
C1099       C  0.08739933  0.66360544  0.88989077    -0.53800
C1100       C  0.10058796  0.70208523  0.89707885     0.10300
H1101       H  0.10325441  0.60714706  0.91677236     0.14800
H1102       H  0.10025572  0.72786393  0.92073238     0.00600
H1103       H  0.99419307  0.59667363  0.90867852     0.15100
H1104       H  0.09414231  0.66199183  0.87798992     0.14900
Fe1105     Fe  0.20531265  0.80285819  0.86737840     1.65800
Fe1106     Fe  0.10960637  0.79748166  0.86316122     1.73200
Fe1107     Fe  0.20420056  0.89655534  0.86462670     1.54400
O1108       O  0.25290791  0.90563080  0.87989937    -0.81500
O1109       O  0.10906337  0.83100581  0.84345935    -0.79800
O1110       O  0.23817397  0.83948588  0.88710269    -0.84000
O1111       O  0.25406335  0.84689411  0.85268076    -0.78800
O1112       O  0.16805129  0.89665308  0.88347929    -0.80600
O1113       O  0.10986630  0.75141387  0.84833651    -0.83300
C1114       C  0.26239769  0.87979678  0.84427779     0.97400
C1115       C  0.26032002  0.88113118  0.88834571     1.04900
O1116       O  0.17287846  0.83213754  0.86502918    -1.12300
O1117       O  0.10198587  0.75968756  0.88280151    -0.74800
O1118       O  0.16009885  0.75404679  0.88209707    -0.78200
O1119       O  0.24202286  0.89973765  0.84573953    -0.78900
C1120       C  0.12308221  0.74263527  0.88748938     0.96300
O1121       O  0.17668782  0.76386109  0.84782897    -0.76900
O1122       O  0.10201167  0.83970984  0.87762593    -0.82100
C1123       C  0.12773074  0.87229987  0.84162413     0.98900
C1124       C  0.12713650  0.87428369  0.88542818     1.04900
O1125       O  0.16139670  0.89917809  0.84928439    -0.77700
C1126       C  0.13801335  0.74403075  0.84283995     1.03200
C1127       C  0.25210135  0.01522547  0.01669803     0.02500
C1128       C  0.29216981  0.01848121  0.01935537     0.02500
C1129       C  0.30551795  0.01862470  0.03478765    -0.18100
C1130       C  0.28945916  0.52278520  0.04764939     0.02500
C1131       C  0.25193269  0.52441003  0.04431779     0.02500
C1132       C  0.22865440  0.01698640  0.02931796    -0.18100
H1133       H  0.19843929  0.01534499  0.02719586     0.04500
H1134       H  0.33543132  0.01962629  0.03684035     0.04500
C1135       C  0.13464818  0.56135907  0.16690799     0.86700
C1136       C  0.14446998  0.60580284  0.16015316    -0.53500
C1137       C  0.18227721  0.62873211  0.15205390     0.09600
C1138       C  0.20874059  0.60640554  0.15247993     0.20600
C1139       C  0.13844941  0.53707391  0.15262511    -0.54300
C1140       C  0.17749206  0.56120831  0.14486058     0.09700
C1141       C  0.17372240  0.57196479  0.17679080    -0.53800
C1142       C  0.21254596  0.59620358  0.16971628     0.10300
H1143       H  0.11970957  0.61398118  0.15914115     0.14800
H1144       H  0.24062393  0.62605451  0.14664878     0.00600
H1145       H  0.11174631  0.50596725  0.14834461     0.15100
H1146       H  0.17078812  0.56014578  0.18851451     0.14900
C1147       C  0.44571627  0.86185659  0.16567669     0.86700
C1148       C  0.47907419  0.85931007  0.15533677    -0.53500
C1149       C  0.46293440  0.81923634  0.14808124     0.09600
C1150       C  0.41541218  0.78545418  0.15244698     0.20600
C1151       C  0.40746003  0.84888823  0.15457137    -0.54300
C1152       C  0.39242716  0.80933456  0.14714356     0.09700
C1153       C  0.42999590  0.82393168  0.17686219    -0.53800
C1154       C  0.41305650  0.78402136  0.17036654     0.10300
H1155       H  0.50987168  0.88823500  0.15217522     0.14800
H1156       H  0.40266512  0.75251845  0.14719510     0.00600
H1157       H  0.39735159  0.87156637  0.15142821     0.15100
H1158       H  0.43262456  0.82861106  0.18921061     0.14900
C1159       C  0.43731374  0.55477452  0.16578175     0.86700
C1160       C  0.39400465  0.52046119  0.15786205    -0.53500
C1161       C  0.37203529  0.53828020  0.15140784     0.09600
C1162       C  0.39428754  0.58794264  0.15432824     0.20600
C1163       C  0.46194641  0.58890636  0.15285064    -0.54300
C1164       C  0.43870228  0.60566558  0.14642779     0.09700
C1165       C  0.42596434  0.57904888  0.17747771    -0.53800
C1166       C  0.40212207  0.59482778  0.17185868     0.10300
H1167       H  0.38504941  0.48680964  0.15561589     0.14800
H1168       H  0.37623890  0.60299697  0.15018323     0.00600
H1169       H  0.49204459  0.59470541  0.14800846     0.15100
H1170       H  0.43695394  0.58385056  0.18931562     0.14900
Fe1171     Fe  0.30799392  0.68772345  0.20093973     1.65800
Fe1172     Fe  0.40198490  0.69003103  0.20460941     1.73200
Fe1173     Fe  0.30648332  0.59308457  0.20259864     1.54400
O1174       O  0.26941115  0.58985588  0.22160005    -0.81500
O1175       O  0.40847838  0.64548383  0.19098278    -0.79800
O1176       O  0.25662549  0.64224288  0.21480024    -0.84000
O1177       O  0.27698580  0.65512258  0.18062634    -0.78800
O1178       O  0.34982270  0.58907924  0.21774130    -0.80600
O1179       O  0.40938013  0.72517018  0.18442619    -0.83300
C1180       C  0.25258721  0.61384259  0.17922553     0.97400
C1181       C  0.24797087  0.60869521  0.22293280     1.04900
O1182       O  0.33889268  0.65701030  0.20280134    -1.12300
O1183       O  0.40365263  0.73931199  0.21843848    -0.74800
O1184       O  0.33575905  0.72274786  0.22101267    -0.78200
O1185       O  0.25798012  0.58739967  0.18749678    -0.78900
C1186       C  0.37543275  0.74557152  0.22463660     0.96300
O1187       O  0.35558772  0.73736913  0.18703284    -0.76900
O1188       O  0.40064949  0.65704264  0.22467426    -0.82100
C1189       C  0.38299804  0.61286236  0.18241796     0.98900
C1190       C  0.38329486  0.61562983  0.22571352     1.04900
O1191       O  0.34195426  0.59327109  0.18349999    -0.77700
C1192       C  0.39050424  0.74519762  0.18062360     1.03200
C1193       C  0.97882472  0.70777288  0.01615123     0.02500
C1194       C  0.00262508  0.75389600  0.01890089     0.02500
C1195       C  0.00695018  0.76999437  0.03408407    -0.18100
C1196       C  0.47484816  0.73431242  0.04567417     0.02500
C1197       C  0.45319452  0.68805573  0.04331234     0.02500
C1198       C  0.96279888  0.67906996  0.02898262    -0.18100
H1199       H  0.94510447  0.64381145  0.02708663     0.04500
H1200       H  0.02471465  0.80524862  0.03601193     0.04500
C1201       C  0.27051365  0.75963084  0.01870482     0.02500
C1202       C  0.22687921  0.72584218  0.02143267     0.02500
C1203       C  0.21226357  0.71245132  0.03671123    -0.18100
C1204       C  0.24100730  0.72965559  0.04940048     0.02500
C1205       C  0.28590552  0.75870102  0.04631910     0.02500
C1206       C  0.29992480  0.77463276  0.03114569    -0.18100
H1207       H  0.33377071  0.79875880  0.02904244     0.04500
H1208       H  0.17834872  0.68835757  0.03866684     0.04500
C1209       C  0.46561527  0.73517654  0.49822568     0.86700
C1210       C  0.47624293  0.77920319  0.49101071    -0.53500
C1211       C  0.01609420  0.80384596  0.48343500     0.09600
C1212       C  0.04215844  0.78121341  0.48529965     0.20600
C1213       C  0.47256124  0.71073846  0.48467813    -0.54300
C1214       C  0.01142578  0.73545709  0.47793227     0.09700
C1215       C  0.00416095  0.74900531  0.50927189    -0.53800
C1216       C  0.04385208  0.77234776  0.50283963     0.10300
H1217       H  0.45118143  0.78643071  0.48877762     0.14800
H1218       H  0.07481609  0.80014558  0.47999092     0.00600
H1219       H  0.44696010  0.67943479  0.48008714     0.15100
H1220       H  0.49739050  0.73323656  0.52083823     0.14900
C1221       C  0.25770881  0.72037064  0.49824377     0.86700
C1222       C  0.21298196  0.68634810  0.49115183    -0.53500
C1223       C  0.19076543  0.70479438  0.48530284     0.09600
C1224       C  0.21421231  0.75464045  0.48838701     0.20600
C1225       C  0.28066544  0.75416573  0.48519730    -0.54300
C1226       C  0.25743098  0.77183473  0.47980150     0.09700
C1227       C  0.24869695  0.74510346  0.51054739    -0.53800
C1228       C  0.22462589  0.76150551  0.50573445     0.10300
H1229       H  0.20348074  0.65260911  0.48877316     0.14800
H1230       H  0.19664719  0.77078124  0.48483599     0.00600
H1231       H  0.30985562  0.75963015  0.47962365     0.15100
H1232       H  0.26190814  0.75004998  0.52204920     0.14900
C1233       C  0.28049763  0.53361548  0.49887758     0.86700
C1234       C  0.31786259  0.52973432  0.49225873    -0.53500
C1235       C  0.30364482  0.99065455  0.48280701     0.09600
C1236       C  0.25483724  0.95864563  0.48580125     0.20600
C1237       C  0.25037188  0.52352358  0.48485680    -0.54300
C1238       C  0.23560950  0.98524494  0.47933831     0.09700
C1239       C  0.26440503  0.99585355  0.51018629    -0.53800
C1240       C  0.24800912  0.95616857  0.50361251     0.10300
H1241       H  0.35025453  0.55830468  0.49077709     0.14800
H1242       H  0.24212429  0.92586862  0.48043923     0.00600
H1243       H  0.24269628  0.54703425  0.48041102     0.15100
H1244       H  0.24636238  0.49775683  0.52101748     0.14900
Fe1245     Fe  0.14088161  0.86357074  0.53434873     1.65800
Fe1246     Fe  0.13359028  0.76592121  0.53710903     1.73200
Fe1247     Fe  0.23176945  0.86046174  0.53854537     1.54400
O1248       O  0.24159370  0.89640364  0.51819233    -0.81500
O1249       O  0.17599655  0.75953846  0.55217649    -0.79800
O1250       O  0.18913931  0.91077870  0.51999258    -0.84000
O1251       O  0.17046896  0.90042173  0.55423155    -0.78800
O1252       O  0.23501872  0.81364893  0.52498799    -0.80600
O1253       O  0.09779212  0.76576630  0.55607632    -0.83300
C1254       C  0.20987575  0.92017805  0.55842499     0.97400
C1255       C  0.22384292  0.91721068  0.51385461     1.04900
O1256       O  0.16885592  0.83011173  0.53675253    -1.12300
O1257       O  0.08598607  0.76196644  0.52183128    -0.74800
O1258       O  0.10865728  0.83008247  0.51421203    -0.78200
O1259       O  0.23644304  0.91110238  0.55247427    -0.78900
C1260       C  0.08277980  0.78892211  0.51301075     0.96300
O1261       O  0.08899136  0.82028093  0.54839065    -0.76900
O1262       O  0.16722161  0.76308784  0.51808687    -0.82100
C1263       C  0.21029133  0.78568497  0.55985343     0.98900
C1264       C  0.20799195  0.78103918  0.51669905     1.04900
O1265       O  0.22807816  0.82709892  0.55878637    -0.77700
C1266       C  0.07818142  0.78660214  0.55681996     1.03200
C1267       C  0.20754452  0.58823252  0.23300209     0.86700
C1268       C  0.20626487  0.61731201  0.24597859    -0.53500
C1269       C  0.16779631  0.59746014  0.25397210     0.09600
C1270       C  0.13394593  0.55108560  0.24777430     0.20600
C1271       C  0.19571307  0.54490861  0.24140092    -0.54300
C1272       C  0.15734320  0.52577967  0.24936600     0.09700
C1273       C  0.16863201  0.57666030  0.22284320    -0.53800
C1274       C  0.13008232  0.55619641  0.23019393     0.10300
H1275       H  0.23436220  0.64855880  0.24945091     0.14800
H1276       H  0.10246412  0.53636469  0.25381986     0.00600
H1277       H  0.21716087  0.53239287  0.24191321     0.15100
H1278       H  0.17136789  0.58422854  0.21064213     0.14900
C1279       C  0.39037980  0.78665032  0.23418945     0.86700
C1280       C  0.42759757  0.79957682  0.24576298    -0.53500
C1281       C  0.44146588  0.83884884  0.25322182     0.09600
C1282       C  0.41824078  0.86228375  0.24776598     0.20600
C1283       C  0.35566006  0.78824859  0.24389767    -0.54300
C1284       C  0.37018985  0.82767136  0.25124948     0.09700
C1285       C  0.40706888  0.82507111  0.22314938    -0.53800
C1286       C  0.42296034  0.86474097  0.22982890     0.10300
H1287       H  0.43861161  0.77761715  0.24888073     0.14800
H1288       H  0.43023664  0.89470733  0.25336555     0.00600
H1289       H  0.32428571  0.75915400  0.24637188     0.15100
H1290       H  0.40588629  0.82090260  0.21079287     0.14900
C1291       C  0.40672838  0.59697153  0.23445091     0.86700
C1292       C  0.38101925  0.56233772  0.24705015    -0.53500
C1293       C  0.40325460  0.54471282  0.25354916     0.09600
C1294       C  0.44830283  0.56238553  0.24622591     0.20600
C1295       C  0.44974053  0.63060282  0.24279883    -0.54300
C1296       C  0.47085628  0.61197727  0.24952230     0.09700
C1297       C  0.41873694  0.57317419  0.22280039    -0.53800
C1298       C  0.44163989  0.55646185  0.22856820     0.10300
H1299       H  0.35044479  0.55620703  0.25152703     0.14800
H1300       H  0.46546764  0.54658766  0.25059951     0.00600
H1301       H  0.45933547  0.66452589  0.24479594     0.15100
H1302       H  0.40857220  0.56906098  0.21087766     0.14900
Fe1303     Fe  0.02970064  0.96364570  0.19901476     1.65800
Fe1304     Fe  0.43262503  0.95730954  0.19528848     1.73200
Fe1305     Fe  0.03518309  0.55483275  0.19760205     1.54400
O1306       O  0.08340212  0.56193165  0.21262492    -0.81500
O1307       O  0.43324185  0.98934804  0.17516369    -0.79800
O1308       O  0.06209561  0.99910412  0.21882162    -0.84000
O1309       O  0.08487060  0.50445195  0.18470224    -0.78800
O1310       O  0.00045352  0.55611901  0.21668170    -0.80600
O1311       O  0.43245373  0.90912775  0.18136141    -0.83300
C1312       C  0.09358464  0.53859467  0.17690912     0.97400
C1313       C  0.09014804  0.53640736  0.22073027     1.04900
O1314       O  0.99688329  0.99254418  0.19733133    -1.12300
O1315       O  0.42551668  0.92239634  0.21544703    -0.74800
O1316       O  0.48145603  0.91323472  0.21364760    -0.78200
O1317       O  0.07200762  0.55721870  0.17866174    -0.78900
C1318       C  0.44555963  0.90394109  0.21968525     0.96300
O1319       O  0.50028945  0.92517112  0.17939312    -0.76900
O1320       O  0.42452022  0.00075031  0.20895642    -0.82100
C1321       C  0.46039578  0.53583007  0.17446474     0.98900
C1322       C  0.46018545  0.53777434  0.21801611     1.04900
O1323       O  0.49419139  0.56210575  0.18220840    -0.77700
C1324       C  0.46088426  0.90291871  0.17533845     1.03200
C1325       C  0.08437695  0.69278411  0.37781753     0.02500
C1326       C  0.12161803  0.69027060  0.38057167     0.02500
C1327       C  0.14216486  0.68382367  0.36790960    -0.18100
C1328       C  0.12647940  0.68010674  0.35267058     0.02500
C1329       C  0.08869661  0.68151926  0.35007612     0.02500
C1330       C  0.06877722  0.68895136  0.36261890    -0.18100
H1331       H  0.03971961  0.68970292  0.36064202     0.04500
H1332       H  0.17062362  0.68200492  0.36990306     0.04500
C1333       C  0.27695393  0.86211602  0.37779460     0.02500
C1334       C  0.30165951  0.90861976  0.37965760     0.02500
C1335       C  0.31588858  0.93515553  0.36630000    -0.18100
C1336       C  0.30933657  0.91646689  0.35141243     0.02500
C1337       C  0.28799507  0.87015245  0.34964824     0.02500
C1338       C  0.27167706  0.84350104  0.36293467    -0.18100
H1339       H  0.25448270  0.80802332  0.36169928     0.04500
H1340       H  0.33420058  0.97065778  0.36751115     0.04500
C1341       C  0.12767784  0.91493917  0.37741937     0.02500
C1342       C  0.08229422  0.88652786  0.37966260     0.02500
C1343       C  0.05522637  0.86876516  0.36659701    -0.18100
C1344       C  0.07172347  0.88167283  0.35152881     0.02500
C1345       C  0.11574714  0.91498970  0.34937876     0.02500
C1346       C  0.14379382  0.93008820  0.36230184    -0.18100
H1347       H  0.17780010  0.95443074  0.36067122     0.04500
H1348       H  0.02087053  0.84568918  0.36813289     0.04500
C1349       C  0.30127712  0.89719692  0.83360662     0.86700
C1350       C  0.31425315  0.93880591  0.82384058    -0.53500
C1351       C  0.35175155  0.95378981  0.81552818     0.09600
C1352       C  0.37290220  0.92666108  0.81805430     0.20600
C1353       C  0.29919565  0.86410598  0.82165051    -0.54300
C1354       C  0.33665099  0.87965926  0.81333978     0.09700
C1355       C  0.34076096  0.90915882  0.84347206    -0.53800
C1356       C  0.37840707  0.92609131  0.83572441     0.10300
H1357       H  0.29434303  0.95302501  0.82277441     0.14800
H1358       H  0.40335295  0.93796369  0.81161394     0.00600
H1359       H  0.26957737  0.83326465  0.81893279     0.15100
H1360       H  0.33902764  0.90400555  0.85576815     0.14900
C1361       C  0.12232884  0.70430180  0.83234233     0.86700
C1362       C  0.15613928  0.70016220  0.82276360    -0.53500
C1363       C  0.13883641  0.66100652  0.81474476     0.09600
C1364       C  0.08966564  0.62953928  0.81768555     0.20600
C1365       C  0.08729512  0.69627690  0.82042073    -0.54300
C1366       C  0.07073413  0.65739566  0.81248110     0.09700
C1367       C  0.10099077  0.66401786  0.84264438    -0.53800
C1368       C  0.08384038  0.62495338  0.83544140     0.10300
H1369       H  0.18953882  0.72688157  0.82154803     0.14800
H1370       H  0.07402614  0.59713979  0.81187129     0.00600
H1371       H  0.07966037  0.72099599  0.81748477     0.15100
H1372       H  0.09908937  0.66647006  0.85487568     0.14900
C1373       C  0.10592206  0.89125566  0.83222661     0.86700
C1374       C  0.06496364  0.85878859  0.82281414    -0.53500
C1375       C  0.04539192  0.87837331  0.81565850     0.09600
C1376       C  0.06731426  0.92773316  0.81935073     0.20600
C1377       C  0.13439759  0.92733308  0.82046982    -0.54300
C1378       C  0.11407732  0.94632000  0.81353888     0.09700
C1379       C  0.09147892  0.91363446  0.84348486    -0.53800
C1380       C  0.06993826  0.93114268  0.83715622     0.10300
H1381       H  0.05516352  0.82481127  0.82077865     0.14800
H1382       H  0.05139779  0.94402620  0.81418254     0.00600
H1383       H  0.16649680  0.93503471  0.81724630     0.15100
H1384       H  0.09924809  0.91645217  0.85559263     0.14900
Fe1385     Fe  0.47964723  0.52437062  0.86481100     1.65800
Fe1386     Fe  0.47270193  0.92880419  0.86878188     1.73200
Fe1387     Fe  0.07601820  0.52937607  0.86876339     1.54400
O1388       O  0.08274617  0.56712806  0.84931829    -0.81500
O1389       O  0.01731049  0.92610145  0.88370701    -0.79800
O1390       O  0.02466047  0.57278647  0.85061424    -0.84000
O1391       O  0.00998360  0.56224985  0.88483616    -0.78800
O1392       O  0.07669985  0.98369022  0.85518656    -0.80600
O1393       O  0.43843549  0.93085253  0.88789021    -0.83300
C1394       C  0.04906086  0.58317870  0.88937915     0.97400
C1395       C  0.06157174  0.58442786  0.84502705     1.04900
O1396       O  0.00776245  0.99412116  0.86767322    -1.12300
O1397       O  0.42409561  0.92150063  0.85398117    -0.74800
O1398       O  0.44374321  0.98792865  0.84513551    -0.78200
O1399       O  0.07732447  0.57629292  0.88368465    -0.78900
C1400       C  0.41903203  0.94628053  0.84479931     0.96300
O1401       O  0.42622352  0.98243859  0.87957202    -0.76900
O1402       O  0.00992459  0.92797057  0.84948196    -0.82100
C1403       C  0.05133865  0.95285621  0.89119620     0.98900
C1404       C  0.05077259  0.94947728  0.84740994     1.04900
O1405       O  0.07039750  0.99412711  0.88923775    -0.77700
C1406       C  0.41790165  0.95074850  0.88872455     1.03200
C1407       C  0.22760365  0.96110491  0.56857517     0.86700
C1408       C  0.26191791  0.96882613  0.58084927    -0.53500
C1409       C  0.27800210  0.51414478  0.58697634     0.09600
C1410       C  0.25618712  0.53749376  0.57982680     0.20600
C1411       C  0.19444973  0.96698661  0.57777436    -0.54300
C1412       C  0.20778412  0.50337136  0.58238567     0.09700
C1413       C  0.25008997  0.00063086  0.55801013    -0.53800
C1414       C  0.26478444  0.53952461  0.56221146     0.10300
H1415       H  0.26856321  0.94359854  0.58410645     0.14800
H1416       H  0.26684699  0.57032977  0.58478996     0.00600
H1417       H  0.16150612  0.94001163  0.57978098     0.15100
H1418       H  0.25137910  0.99728821  0.54571563     0.14900
C1419       C  0.03712262  0.76886901  0.56632788     0.86700
C1420       C  0.03651272  0.80210857  0.57748561    -0.53500
C1421       C  0.49423701  0.78605849  0.58425130     0.09600
C1422       C  0.45914651  0.73891100  0.57911075     0.20600
C1423       C  0.02242629  0.72763361  0.57661853    -0.54300
C1424       C  0.47931936  0.71191673  0.58377655     0.09700
C1425       C  0.99980897  0.75600192  0.55524132    -0.53800
C1426       C  0.45831044  0.73865445  0.56125549     0.10300
H1427       H  0.06583184  0.83225814  0.58101166     0.14800
H1428       H  0.42683450  0.72796411  0.58390973     0.00600
H1429       H  0.04312537  0.71493356  0.57908222     0.15100
H1430       H  0.00411950  0.75997058  0.54293134     0.14900
C1431       C  0.23521515  0.76725734  0.56774760     0.86700
C1432       C  0.21203728  0.73114560  0.58022142    -0.53500
C1433       C  0.23667959  0.71488142  0.58569241     0.09600
C1434       C  0.28104889  0.73531835  0.57757225     0.20600
C1435       C  0.27838383  0.80158849  0.57581723    -0.54300
C1436       C  0.30168800  0.78427969  0.58159525     0.09700
C1437       C  0.24762403  0.74584494  0.55525984    -0.53800
C1438       C  0.27267213  0.73055584  0.56003127     0.10300
H1439       H  0.18170332  0.72334984  0.58547999     0.14800
H1440       H  0.30018437  0.72080385  0.58106955     0.00600
H1441       H  0.28562213  0.83417111  0.57899645     0.15100
H1442       H  0.23564649  0.74195138  0.54360831     0.14900
Fe1443     Fe  0.36542105  0.63733755  0.53081394     1.65800
Fe1444     Fe  0.26906376  0.63116460  0.52819685     1.73200
Fe1445     Fe  0.36404953  0.73016309  0.52684569     1.54400
O1446       O  0.41344266  0.74077541  0.54191145    -0.81500
O1447       O  0.26488319  0.66151804  0.50828138    -0.79800
O1448       O  0.39816761  0.67513183  0.55020647    -0.84000
O1449       O  0.41519919  0.68034543  0.51604025    -0.78800
O1450       O  0.33056155  0.73438820  0.54577252    -0.80600
O1451       O  0.26707166  0.58202126  0.51413611    -0.83300
C1452       C  0.42315403  0.71257123  0.50736518     0.97400
C1453       C  0.41985525  0.71687533  0.55106221     1.04900
O1454       O  0.33259479  0.66613486  0.52855904    -1.12300
O1455       O  0.26505248  0.59706578  0.54837240    -0.74800
O1456       O  0.32104902  0.58867022  0.54562659    -0.78200
O1457       O  0.40007605  0.72986931  0.50792434    -0.78900
C1458       C  0.28563079  0.57870329  0.55204007     0.96300
O1459       O  0.33513960  0.59837807  0.51172569    -0.76900
O1460       O  0.26381213  0.67589379  0.54220930    -0.82100
C1461       C  0.28298339  0.70255671  0.50588337     0.98900
C1462       C  0.29025128  0.71218049  0.54890011     1.04900
O1463       O  0.31921818  0.73042268  0.51194164    -0.77700
C1464       C  0.29525625  0.57515764  0.50823807     1.03200
C1465       C  0.41955300  0.80801036  0.71452538     0.02500
C1466       C  0.37682566  0.79939994  0.71396718     0.02500
C1467       C  0.35611814  0.79223410  0.69946265    -0.18100
C1468       C  0.37748583  0.79405326  0.68557767     0.02500
C1469       C  0.42112911  0.80496430  0.68620045     0.02500
C1470       C  0.44088824  0.80980535  0.70070681    -0.18100
H1471       H  0.47421304  0.81829055  0.70120224     0.04500
H1472       H  0.32327307  0.78517127  0.69898319     0.04500
C1473       C  0.21669988  0.60964562  0.71610007     0.02500
C1474       C  0.20854376  0.56639739  0.71431048     0.02500
C1475       C  0.20339207  0.54865063  0.69936374    -0.18100
C1476       C  0.20941653  0.57416950  0.68608828     0.02500
C1477       C  0.22571769  0.61985117  0.68789765     0.02500
C1478       C  0.22763315  0.63682244  0.70289785    -0.18100
H1479       H  0.23597055  0.67055788  0.70421239     0.04500
H1480       H  0.19304441  0.51429729  0.69811275     0.04500
C1481       C  0.43584250  0.61835742  0.71524796     0.02500
C1482       C  0.39482684  0.57915897  0.71698058     0.02500
C1483       C  0.36752552  0.56115896  0.70400143    -0.18100
C1484       C  0.38090464  0.58123632  0.68935159     0.02500
C1485       C  0.42174744  0.62068616  0.68770544     0.02500
C1486       C  0.44904863  0.63850973  0.70064313    -0.18100
H1487       H  0.48049256  0.66840886  0.69938083     0.04500
H1488       H  0.33672677  0.53045797  0.70514844     0.04500
C1489       C  0.34931791  0.77423246  0.64560357     0.20500
C1490       C  0.35701606  0.76534882  0.63050664    -0.39300
C1491       C  0.34817853  0.78593937  0.61848592     0.19500
C1492       C  0.33136725  0.81210527  0.62116936     0.22200
C1493       C  0.32481692  0.82210971  0.63636847    -0.39800
C1494       C  0.33507721  0.80260024  0.64849539     0.21000
N1495       N  0.35954644  0.76216070  0.65889254    -0.33100
C1496       C  0.35466367  0.78514922  0.67038642    -0.10700
C1497       C  0.33782193  0.80952864  0.66440580    -0.29500
N1498       N  0.31880875  0.82132737  0.60768225    -0.46100
C1499       C  0.32719686  0.80032359  0.59632609    -0.05400
C1500       C  0.34778405  0.78002202  0.60272593    -0.22700
H1501       H  0.36907630  0.74388843  0.62827857     0.19100
H1502       H  0.31265844  0.84347142  0.63858539     0.17900
H1503       H  0.33350520  0.83334450  0.67055179     0.14200
H1504       H  0.35587791  0.75837790  0.59699393     0.14000
H1505       H  0.37360899  0.74320808  0.65986034     0.32200
H1506       H  0.30058645  0.83603560  0.60662018     0.34900
C1507       C  0.25637674  0.66375732  0.64976636     0.20500
C1508       C  0.26655999  0.66020789  0.63431450    -0.39300
C1509       C  0.24960462  0.67510698  0.62292938     0.19500
C1510       C  0.22501341  0.69293324  0.62661178     0.22200
C1511       C  0.21493309  0.69667136  0.64209108    -0.39800
C1512       C  0.23121389  0.68098142  0.65352480     0.21000
N1513       N  0.26280477  0.64556188  0.66231905    -0.33100
C1514       C  0.24005390  0.64926118  0.67407458    -0.10700
C1515       C  0.22125665  0.67276310  0.66916766    -0.29500
N1516       N  0.21371516  0.70567707  0.61365012    -0.46100
C1517       C  0.23142652  0.69610946  0.60157253    -0.05400
C1518       C  0.25369622  0.67653879  0.60699702    -0.22700
H1519       H  0.28516425  0.64558268  0.63132623     0.19100
H1520       H  0.19448624  0.70927009  0.64497547     0.17900
H1521       H  0.19827895  0.67737726  0.67551553     0.14200
H1522       H  0.27254042  0.66689685  0.60030456     0.14000
H1523       H  0.27747107  0.62710133  0.66241989     0.32200
H1524       H  0.19741710  0.72250880  0.61318674     0.34900
C1525       C  0.49561828  0.80127782  0.62530588     0.20500
C1526       C  0.49692220  0.78988226  0.64085074    -0.39300
C1527       C  0.47987397  0.80567388  0.65183742     0.19500
C1528       C  0.46417840  0.83210769  0.64764101     0.22200
C1529       C  0.46220024  0.84285219  0.63205138    -0.39800
C1530       C  0.47784372  0.82576466  0.62101033     0.21000
N1531       N  0.50605101  0.78685050  0.61269024    -0.33100
C1532       C  0.49363896  0.80086487  0.60024038    -0.10700
C1533       C  0.47587084  0.82537291  0.60492059    -0.29500
N1534       N  0.44581218  0.83913368  0.65988966    -0.46100
C1535       C  0.44745887  0.81509241  0.67179808    -0.05400
C1536       C  0.46974723  0.79478550  0.66734374    -0.22700
H1537       H  0.01342538  0.77054954  0.64468994     0.19100
H1538       H  0.44696911  0.86076346  0.62870640     0.17900
H1539       H  0.46158761  0.83910797  0.59762529     0.14200
H1540       H  0.47382848  0.77150899  0.67400905     0.14000
H1541       H  0.02343654  0.76833317  0.61313074     0.32200
H1542       H  0.42994709  0.85642101  0.65977548     0.34900
C1543       C  0.43734186  0.67005715  0.62140570     0.20500
C1544       C  0.41455756  0.66864345  0.63472570    -0.39300
C1545       C  0.42954784  0.66163005  0.64873914     0.19500
C1546       C  0.46379950  0.65515863  0.64944292     0.22200
C1547       C  0.98955530  0.64956427  0.63522929    -0.39800
C1548       C  0.47298773  0.66591243  0.62205526     0.21000
N1549       N  0.43172099  0.68046377  0.60702897    -0.33100
C1550       C  0.46532606  0.68554490  0.59839667    -0.10700
C1551       C  0.99441389  0.67236394  0.60685923    -0.29500
N1552       N  0.46822492  0.64385946  0.66394739    -0.46100
C1553       C  0.43630949  0.64288254  0.67242372    -0.05400
C1554       C  0.41287946  0.65576233  0.66345371    -0.22700
H1555       H  0.38724743  0.67294748  0.63421606     0.19100
H1556       H  0.01555409  0.64322352  0.63521811     0.17900
H1557       H  0.02351579  0.67388271  0.60307615     0.14200
H1558       H  0.38499977  0.65704399  0.66692072     0.14000
H1559       H  0.40820069  0.68741676  0.60395507     0.32200
H1560       H  0.48922778  0.63390840  0.66754808     0.34900
C1561       C  0.34440634  0.53490216  0.65191947     0.20500
C1562       C  0.34802148  0.51832498  0.63755988    -0.39300
C1563       C  0.32820400  0.52554663  0.62485954     0.19500
C1564       C  0.30794739  0.54895901  0.62633638     0.22200
C1565       C  0.30351829  0.56464239  0.64071217    -0.39800
C1566       C  0.32176579  0.55592717  0.65349026     0.21000
N1567       N  0.36438047  0.53679324  0.66531123    -0.33100
C1568       C  0.35420278  0.55891740  0.67548906    -0.10700
C1569       C  0.32637499  0.57000825  0.66867560    -0.29500
N1570       N  0.29146872  0.55122842  0.61268756    -0.46100
C1571       C  0.29934319  0.52738079  0.60245158    -0.05400
C1572       C  0.32283265  0.51127797  0.60961285    -0.22700
H1573       H  0.38093197  0.99032021  0.63110349     0.19100
H1574       H  0.28711224  0.58242268  0.64184503     0.17900
H1575       H  0.31586972  0.59075506  0.67354760     0.14200
H1576       H  0.33932328  0.98387120  0.60130140     0.14000
H1577       H  0.38688836  0.52743018  0.66700014     0.32200
H1578       H  0.27323091  0.56564965  0.61088767     0.34900
C1579       C  0.18680613  0.49525245  0.62291549     0.20500
C1580       C  0.19653639  0.48906428  0.63816358    -0.39300
C1581       C  0.19209517  0.51409047  0.64969022     0.19500
C1582       C  0.17752558  0.54193922  0.64631902     0.22200
C1583       C  0.16898555  0.54914003  0.63100459    -0.39800
C1584       C  0.17497004  0.52528076  0.61938386     0.21000
N1585       N  0.19016553  0.98590729  0.61318437    -0.33100
C1586       C  0.18918927  0.50142168  0.59789317    -0.10700
C1587       C  0.17684104  0.52997819  0.60335785    -0.29500
N1588       N  0.17854886  0.56392172  0.65910559    -0.46100
C1589       C  0.19645458  0.55226572  0.67054245    -0.05400
C1590       C  0.20430184  0.52023919  0.66516330    -0.22700
H1591       H  0.19304492  0.97242495  0.64502187     0.19100
H1592       H  0.16106214  0.57366258  0.62826853     0.17900
H1593       H  0.17384395  0.55394161  0.59669369     0.14200
H1594       H  0.21972283  0.50578983  0.67138838     0.14000
H1595       H  0.19741056  0.96127006  0.61372275     0.32200
H1596       H  0.16891045  0.58667480  0.65977482     0.34900
C1597       C  0.46489165  0.84987854  0.75193701     0.20500
C1598       C  0.96699961  0.87100895  0.76768121    -0.39300
C1599       C  0.98381490  0.86001914  0.78034586     0.19500
C1600       C  0.49689978  0.83017213  0.77758080     0.22200
C1601       C  0.48824563  0.80420712  0.76420401    -0.39800
C1602       C  0.47193055  0.81542671  0.75139008     0.21000
N1603       N  0.44838096  0.85339443  0.73847150    -0.33100
C1604       C  0.44393183  0.82043283  0.72932191    -0.10700
C1605       C  0.45886463  0.79632422  0.73686643    -0.29500
N1606       N  0.01583049  0.82887064  0.79241722    -0.46100
C1607       C  0.01612934  0.85920505  0.80200365    -0.05400
C1608       C  0.99532097  0.87839799  0.79492456    -0.22700
H1609       H  0.95779776  0.89522604  0.76855894     0.19100
H1610       H  0.49424308  0.77760625  0.76374946     0.17900
H1611       H  0.45781968  0.76725802  0.73265620     0.14200
H1612       H  0.99228664  0.90507639  0.79921625     0.14000
H1613       H  0.93543186  0.87334250  0.73794744     0.32200
H1614       H  0.52733503  0.80794511  0.79310476     0.34900
C1615       C  0.16308395  0.49517353  0.74680952     0.20500
C1616       C  0.12777325  0.46692848  0.75625940    -0.39300
C1617       C  0.13317031  0.00957726  0.77814213     0.19500
C1618       C  0.15605341  0.98907237  0.77579436     0.22200
C1619       C  0.17544689  0.99092583  0.76149329    -0.39800
C1620       C  0.20357387  0.52423999  0.75299095     0.21000
N1621       N  0.16190984  0.50278913  0.73155998    -0.33100
C1622       C  0.20129332  0.53819212  0.72806890    -0.10700
C1623       C  0.22851947  0.55178126  0.74107651    -0.29500
N1624       N  0.15482095  0.96675805  0.78853950    -0.46100
C1625       C  0.13037530  0.97240017  0.79904991    -0.05400
C1626       C  0.11655966  0.99926078  0.79299675    -0.22700
H1627       H  0.09566218  0.44548647  0.75154971     0.19100
H1628       H  0.19356671  0.97509695  0.75968994     0.17900
H1629       H  0.26040288  0.58110818  0.74211009     0.14200
H1630       H  0.09556463  0.00837291  0.79842675     0.14000
H1631       H  0.13445100  0.48848125  0.72446989     0.32200
H1632       H  0.16750262  0.94658621  0.78960036     0.34900
C1633       C  0.01424795  0.65705699  0.77825454     0.20500
C1634       C  0.48452050  0.66583625  0.76919308    -0.39300
C1635       C  0.48270100  0.65599131  0.75330377     0.19500
C1636       C  0.01110561  0.63913498  0.74697506     0.22200
C1637       C  0.03529578  0.62831452  0.75656351    -0.39800
C1638       C  0.03552945  0.63756658  0.77237116     0.21000
N1639       N  0.02206078  0.66488181  0.79358664    -0.33100
C1640       C  0.04802521  0.64958541  0.79743613    -0.10700
C1641       C  0.05634924  0.63171039  0.78452218    -0.29500
N1642       N  0.00177763  0.62871102  0.73190719    -0.46100
C1643       C  0.46518823  0.63819494  0.72870464    -0.05400
C1644       C  0.45550929  0.65442485  0.74180094    -0.22700
H1645       H  0.46493871  0.67730592  0.77422081     0.19100
H1646       H  0.05196505  0.61289885  0.75209231     0.17900
H1647       H  0.07698304  0.61860129  0.78377681     0.14200
H1648       H  0.42917592  0.66000053  0.74312475     0.14000
H1649       H  0.50857503  0.67988240  0.80114476     0.32200
H1650       H  0.01166366  0.61144639  0.72506345     0.34900
C1651       C  0.21250314  0.65324173  0.75352103     0.20500
C1652       C  0.22599890  0.68159842  0.76657454    -0.39300
C1653       C  0.19883951  0.66505169  0.77981487     0.19500
C1654       C  0.16274317  0.62293890  0.78009004     0.22200
C1655       C  0.14866129  0.59565936  0.76703228    -0.39800
C1656       C  0.17423150  0.61283656  0.75377898     0.21000
N1657       N  0.23247949  0.65945399  0.73962383    -0.33100
C1658       C  0.20604738  0.62256805  0.73115972    -0.10700
C1659       C  0.16870056  0.59411503  0.73947808    -0.29500
N1660       N  0.14114132  0.61491197  0.79346188    -0.46100
C1661       C  0.16101897  0.65300573  0.80164897    -0.05400
C1662       C  0.19825996  0.68492293  0.79365669    -0.22700
H1663       H  0.25470481  0.71426367  0.76632410     0.19100
H1664       H  0.11918105  0.56352667  0.76709036     0.17900
H1665       H  0.14185896  0.56245685  0.73583010     0.14200
H1666       H  0.21958451  0.71914488  0.79676701     0.14000
H1667       H  0.26281096  0.68591279  0.73639374     0.32200
H1668       H  0.11240572  0.58566020  0.79608693     0.34900
C1669       C  0.36160217  0.00496627  0.77921266     0.20500
C1670       C  0.33110850  0.51825298  0.76942425    -0.39300
C1671       C  0.35486205  0.53166730  0.75543236     0.19500
C1672       C  0.41716915  0.03084293  0.75436177     0.22200
C1673       C  0.43277916  0.02763811  0.76883969    -0.39800
C1674       C  0.40363440  0.01508665  0.78116763     0.21000
N1675       N  0.33859352  0.98709180  0.79228921    -0.33100
C1676       C  0.36622460  0.98544541  0.80251071    -0.10700
C1677       C  0.40747025  0.00436534  0.79609655    -0.29500
N1678       N  0.40977038  0.54608258  0.73962916    -0.46100
C1679       C  0.38274143  0.55503130  0.73198502    -0.05400
C1680       C  0.34737959  0.54557898  0.74134630    -0.22700
H1681       H  0.30004638  0.51530807  0.77053873     0.19100
H1682       H  0.46508180  0.03379575  0.77034664     0.17900
H1683       H  0.43540176  0.00533543  0.80097544     0.14200
H1684       H  0.32127735  0.55064188  0.73855574     0.14000
H1685       H  0.30088685  0.47905770  0.79922670     0.32200
H1686       H  0.46982267  0.04849605  0.73916489     0.34900
C1687       C  0.33493268  0.85401499  0.77298802     0.20500
C1688       C  0.33379373  0.86021160  0.75689937    -0.39300
C1689       C  0.33892395  0.83151477  0.74730732     0.19500
C1690       C  0.34508130  0.79928835  0.75331352     0.22200
C1691       C  0.34635718  0.79317290  0.76944695    -0.39800
C1692       C  0.34078734  0.82164042  0.77905954     0.21000
N1693       N  0.33253077  0.87817807  0.78443464    -0.33100
C1694       C  0.33660287  0.86111237  0.79794228    -0.10700
C1695       C  0.34174547  0.82566824  0.79510997    -0.29500
N1696       N  0.35434843  0.77996280  0.74184576    -0.46100
C1697       C  0.35493368  0.80048487  0.72844379    -0.05400
C1698       C  0.34446126  0.83219078  0.73139373    -0.22700
H1699       H  0.33062725  0.88648830  0.75219784     0.19100
H1700       H  0.35259460  0.76894522  0.77415726     0.17900
H1701       H  0.34648818  0.80621482  0.80359594     0.14200
H1702       H  0.34587617  0.85605865  0.72327202     0.14000
H1703       H  0.32860145  0.90491461  0.78313975     0.32200
H1704       H  0.36347274  0.75690408  0.74322295     0.34900
C1705       C  0.04873731  0.64287809  0.31175206     0.20500
C1706       C  0.04190233  0.61739565  0.29850979    -0.39300
C1707       C  0.02972440  0.63041967  0.28512413     0.19500
C1708       C  0.52545995  0.66567492  0.28510015     0.22200
C1709       C  0.53482696  0.69304335  0.29818371    -0.39800
C1710       C  0.04479510  0.67930960  0.31160756     0.21000
N1711       N  0.06126655  0.63736645  0.32574763    -0.33100
C1712       C  0.06800327  0.67186607  0.33450325    -0.10700
C1713       C  0.05701443  0.69833095  0.32622073    -0.29500
N1714       N  0.50667008  0.66627154  0.27162673    -0.46100
C1715       C  0.50081746  0.63135843  0.26316843    -0.05400
C1716       C  0.01752955  0.61034679  0.27091172    -0.22700
H1717       H  0.04540946  0.58913413  0.29866116     0.19100
H1718       H  0.52992003  0.72039144  0.29814325     0.17900
H1719       H  0.56497331  0.73168264  0.32973040     0.14200
H1720       H  0.01691835  0.58079362  0.26774464     0.14000
H1721       H  0.06520815  0.61161391  0.32905873     0.32200
H1722       H  0.49546451  0.68707491  0.26897461     0.34900
C1723       C  0.35807368  0.96427434  0.31534127     0.20500
C1724       C  0.38113334  0.96745403  0.30185931    -0.39300
C1725       C  0.36999743  0.98175797  0.28850133     0.19500
C1726       C  0.33809059  0.99173594  0.28851892     0.22200
C1727       C  0.31485175  0.98840813  0.30200134    -0.39800
C1728       C  0.32632023  0.97459058  0.31543981     0.21000
N1729       N  0.35943127  0.94702917  0.32902401    -0.33100
C1730       C  0.32798995  0.94574927  0.33785120    -0.10700
C1731       C  0.30730664  0.96371138  0.32993347    -0.29500
N1732       N  0.37388685  0.53591978  0.28053442    -0.46100
C1733       C  0.39437162  0.52626193  0.26951978    -0.05400
C1734       C  0.41497873  0.50650549  0.27625798    -0.22700
H1735       H  0.40572512  0.95907499  0.30175604     0.19100
H1736       H  0.28954393  0.99577970  0.30200228     0.17900
H1737       H  0.27865719  0.96342231  0.33353819     0.15400
H1738       H  0.43493918  0.49641955  0.27061474     0.14000
H1739       H  0.37753438  0.93285367  0.33164811     0.32200
H1740       H  0.35774353  0.55268140  0.27902046     0.34900
C1741       C  0.47874540  0.86533771  0.29243238     0.20500
C1742       C  0.47612088  0.87492202  0.30808798    -0.39300
C1743       C  0.00167402  0.86124732  0.31870166     0.19500
C1744       C  0.02769397  0.84615593  0.31364501     0.22200
C1745       C  0.02941919  0.83629307  0.29796053    -0.39800
C1746       C  0.00353831  0.84327534  0.28772354     0.21000
N1747       N  0.45629816  0.86726814  0.28038336    -0.33100
C1748       C  0.46616243  0.85075888  0.26797181    -0.10700
C1749       C  0.99557595  0.83443896  0.27205082    -0.29500
N1750       N  0.05250416  0.84669408  0.32532999    -0.46100
C1751       C  0.04241676  0.86233550  0.33793624    -0.05400
C1752       C  0.00986451  0.87058295  0.33434471    -0.22700
H1753       H  0.45597138  0.88720183  0.31180683     0.19100
H1754       H  0.04967397  0.82437258  0.29401007     0.17900
H1755       H  0.00777105  0.81902468  0.26459276     0.14200
H1756       H  0.49619258  0.89206589  0.34155260     0.14000
H1757       H  0.43361013  0.87671080  0.28086334     0.32200
H1758       H  0.07758763  0.84066927  0.32444973     0.34900
C1759       C  0.33081059  0.81818824  0.29010149     0.20500
C1760       C  0.32685518  0.80712164  0.30595515    -0.39300
C1761       C  0.30666654  0.82335373  0.31528605     0.19500
C1762       C  0.29070055  0.84784289  0.30919105     0.22200
C1763       C  0.29559660  0.85982663  0.29337579    -0.39800
C1764       C  0.31670891  0.84443395  0.28409313     0.21000
N1765       N  0.35024605  0.80816825  0.27903316    -0.33100
C1766       C  0.34942493  0.82878384  0.26591374    -0.10700
C1767       C  0.32901886  0.85208900  0.26859976    -0.29500
N1768       N  0.27630256  0.86246036  0.32063724    -0.46100
C1769       C  0.28551005  0.84964352  0.33422674    -0.05400
C1770       C  0.30316398  0.82382951  0.33128390    -0.22700
H1771       H  0.34008574  0.78866450  0.31077458     0.19100
H1772       H  0.28538233  0.88115854  0.28879318     0.17900
H1773       H  0.32433333  0.87225024  0.26042125     0.14200
H1774       H  0.31620883  0.81137428  0.33972859     0.14000
H1775       H  0.36455198  0.78955150  0.28040902     0.32200
H1776       H  0.26344402  0.88233744  0.31924994     0.34900
C1777       C  0.15299112  0.46717244  0.28347010     0.20500
C1778       C  0.17117014  0.46103170  0.29701454    -0.39300
C1779       C  0.15146833  0.95296675  0.30956490     0.19500
C1780       C  0.11679914  0.95803932  0.31203258     0.22200
C1781       C  0.09612376  0.96611790  0.29997721    -0.39800
C1782       C  0.11119167  0.45849355  0.28325208     0.21000
N1783       N  0.17349469  0.48721232  0.27017657    -0.33100
C1784       C  0.14455545  0.49163416  0.26157457    -0.10700
C1785       C  0.10465153  0.47178369  0.26911412    -0.29500
N1786       N  0.10473270  0.95116770  0.32692421    -0.46100
C1787       C  0.12927869  0.93813865  0.33411325    -0.05400
C1788       C  0.15985862  0.93983626  0.32372560    -0.22700
H1789       H  0.20391589  0.46791119  0.29730149     0.19100
H1790       H  0.06851328  0.96928041  0.30202083     0.17900
H1791       H  0.07634333  0.47255069  0.26583016     0.14200
H1792       H  0.18264647  0.92964762  0.32588777     0.14000
H1793       H  0.20653611  0.50185599  0.26803860     0.32200
H1794       H  0.07910027  0.95249347  0.33172306     0.34900
C1795       C  0.17091673  0.65344528  0.28927281     0.20500
C1796       C  0.17893943  0.68861299  0.29902139    -0.39300
C1797       C  0.16866052  0.67813116  0.31484937     0.19500
C1798       C  0.15244616  0.63605436  0.32055838     0.22200
C1799       C  0.14329947  0.60081557  0.31075296    -0.39800
C1800       C  0.15286766  0.61115166  0.29496456     0.21000
N1801       N  0.17813391  0.65446766  0.27383159    -0.33100
C1802       C  0.16371828  0.61225898  0.26968794    -0.10700
C1803       C  0.14748620  0.58450022  0.28257349    -0.29500
N1804       N  0.14153833  0.63355232  0.33563010    -0.46100
C1805       C  0.14887141  0.67369595  0.33946688    -0.05400
C1806       C  0.16668707  0.70265210  0.32686772    -0.22700
H1807       H  0.19116129  0.72142568  0.29455980     0.19100
H1808       H  0.12869730  0.56747341  0.31504217     0.17900
H1809       H  0.13488433  0.54968266  0.28301769     0.14200
H1810       H  0.17247035  0.73555361  0.32607332     0.14000
H1811       H  0.19203916  0.68203751  0.26658695     0.32200
H1812       H  0.12488251  0.60488253  0.34228579     0.34900
C1813       C  0.33017685  0.96050552  0.44679545     0.20500
C1814       C  0.33406095  0.93231439  0.43647438    -0.39300
C1815       C  0.32959930  0.93849624  0.42058792     0.19500
C1816       C  0.32032625  0.96923044  0.41535436     0.22200
C1817       C  0.31750312  0.99817891  0.42564898    -0.39800
C1818       C  0.32361598  0.99311779  0.44150681     0.21000
N1819       N  0.32783126  0.95784073  0.46244741    -0.33100
C1820       C  0.32091063  0.98977539  0.46723583    -0.10700
C1821       C  0.31880635  0.01283163  0.45446081    -0.29500
N1822       N  0.31148482  0.96422954  0.39997940    -0.46100
C1823       C  0.31495807  0.92987512  0.39536599    -0.05400
C1824       C  0.32805321  0.91438807  0.40785292    -0.22700
H1825       H  0.35901895  0.41552310  0.44557857     0.19100
H1826       H  0.30924678  0.02161599  0.42169197     0.17900
H1827       H  0.31023383  0.03757561  0.45459092     0.14200
H1828       H  0.33300177  0.88710106  0.40786894     0.14000
H1829       H  0.33347551  0.43536672  0.47317330     0.32200
H1830       H  0.30103015  0.98126110  0.39326463     0.34900
C1831       C  0.19248757  0.94024693  0.44167369     0.20500
C1832       C  0.17655835  0.90793679  0.43001582    -0.39300
C1833       C  0.17585581  0.92236185  0.41490290     0.19500
C1834       C  0.18985943  0.96576657  0.41158786     0.22200
C1835       C  0.20594295  0.99818707  0.42331269    -0.39800
C1836       C  0.20659086  0.98366142  0.43849113     0.21000
N1837       N  0.19728226  0.93479994  0.45684615    -0.33100
C1838       C  0.21515554  0.97508041  0.46356873    -0.10700
C1839       C  0.22078811  0.00636898  0.45242946    -0.29500
N1840       N  0.17971942  0.96964290  0.39681184    -0.46100
C1841       C  0.15797937  0.92824933  0.39084351    -0.05400
C1842       C  0.15636458  0.89820841  0.40167116    -0.22700
H1843       H  0.16424411  0.87369008  0.43261060     0.19100
H1844       H  0.20462781  0.52907609  0.42120030     0.17900
H1845       H  0.22772946  0.53699042  0.45369574     0.14200
H1846       H  0.13794290  0.86268155  0.40072475     0.14000
H1847       H  0.19029732  0.90545608  0.46211908     0.32200
H1848       H  0.18241198  0.99761370  0.39180227     0.34900
C1849       C  0.14350295  0.70673267  0.42118738     0.20500
C1850       C  0.13970761  0.72180606  0.43571123    -0.39300
C1851       C  0.14297222  0.69973413  0.44854002     0.19500
C1852       C  0.15193660  0.66686915  0.44712194     0.22200
C1853       C  0.15358452  0.65019295  0.43245409    -0.39800
C1854       C  0.14784496  0.67083099  0.41951171     0.21000
N1855       N  0.14049740  0.72192118  0.40734635    -0.33100
C1856       C  0.13820425  0.69305135  0.39664641    -0.10700
C1857       C  0.14440670  0.66148552  0.40374471    -0.29500
N1858       N  0.16369026  0.65882401  0.46101053    -0.46100
C1859       C  0.16237145  0.68709241  0.47128138    -0.05400
C1860       C  0.14662859  0.71080414  0.46390448    -0.22700
H1861       H  0.13558394  0.74952551  0.43694263     0.19100
H1862       H  0.15977215  0.62386831  0.43120348     0.17900
H1863       H  0.14315161  0.63358406  0.39828193     0.14200
H1864       H  0.14439032  0.73768867  0.46846095     0.14000
H1865       H  0.13966400  0.75021678  0.40542388     0.32200
H1866       H  0.17728791  0.63971511  0.46281175     0.34900
C1867       C  0.23922052  0.82069451  0.41549699     0.20500
C1868       C  0.23245842  0.82845885  0.43089852    -0.39300
C1869       C  0.24623915  0.81070983  0.44236798     0.19500
C1870       C  0.26474277  0.78650936  0.43878938     0.22200
C1871       C  0.27116111  0.77833407  0.42340919    -0.39800
C1872       C  0.25816686  0.79679772  0.41190073     0.21000
N1873       N  0.23716159  0.84148171  0.40285492    -0.33100
C1874       C  0.25699250  0.83276050  0.39133826    -0.10700
C1875       C  0.26865948  0.80329291  0.39634059    -0.29500
N1876       N  0.27488948  0.77308803  0.45178224    -0.46100
C1877       C  0.26239401  0.78851626  0.46376160    -0.05400
C1878       C  0.24465448  0.81245589  0.45830807    -0.22700
H1879       H  0.21953558  0.84881275  0.43374481     0.19100
H1880       H  0.28729915  0.76096883  0.42062992     0.17900
H1881       H  0.28865010  0.79405501  0.39019813     0.14200
H1882       H  0.23035077  0.82711907  0.46505567     0.14000
H1883       H  0.22844510  0.86505932  0.40264670     0.32200
H1884       H  0.28689527  0.75224380  0.45239561     0.34900
C1885       C  0.00889566  0.82328712  0.44321387     0.20500
C1886       C  0.99973636  0.80875564  0.42770000    -0.39300
C1887       C  0.02545320  0.83989636  0.41637638     0.19500
C1888       C  0.05660654  0.88269315  0.42023491     0.22200
C1889       C  0.06685421  0.89680284  0.43575868    -0.39800
C1890       C  0.04236014  0.86512380  0.44712336     0.21000
N1891       N  0.99250242  0.79844434  0.45601253    -0.33100
C1892       C  0.01685742  0.82362003  0.46814943    -0.10700
C1893       C  0.04828114  0.86566386  0.46306862    -0.29500
N1894       N  0.07786186  0.90537808  0.40749863    -0.46100
C1895       C  0.06254575  0.87629716  0.39551185    -0.05400
C1896       C  0.02879920  0.83520595  0.40056492    -0.22700
H1897       H  0.47554243  0.77230366  0.42501283     0.19100
H1898       H  0.09368593  0.92925126  0.43874977     0.17900
H1899       H  0.07408312  0.89176539  0.46987235     0.14200
H1900       H  0.01115819  0.80524187  0.39382747     0.14000
H1901       H  0.46962732  0.76151802  0.45646717     0.32200
H1902       H  0.10213275  0.93858579  0.40717447     0.34900
C1903       C  0.03024642  0.68274982  0.41348721     0.20500
C1904       C  0.01111968  0.66260119  0.42778623    -0.39300
C1905       C  0.01688758  0.69133000  0.44002614     0.19500
C1906       C  0.04156296  0.73645110  0.43819270     0.22200
C1907       C  0.05902143  0.75647410  0.42381236    -0.39800
C1908       C  0.05150770  0.72785154  0.41144257     0.21000
N1909       N  0.03553536  0.66372835  0.40089979    -0.33100
C1910       C  0.05987192  0.69687969  0.39076976    -0.10700
C1911       C  0.06867299  0.73712523  0.39665685    -0.29500
N1912       N  0.04514692  0.75678602  0.45166951    -0.46100
C1913       C  0.02049276  0.72489892  0.46215651    -0.05400
C1914       C  0.00239665  0.68328825  0.45531150    -0.22700
H1915       H  0.99421724  0.62731978  0.42938474     0.19100
H1916       H  0.07825226  0.79188658  0.42247624     0.17900
H1917       H  0.09060856  0.76942358  0.39182791     0.14200
H1918       H  0.98123114  0.65163749  0.46069840     0.14000
H1919       H  0.02674893  0.63092426  0.39985512     0.32200
H1920       H  0.06244425  0.79076260  0.45335690     0.34900
C1921       C  0.42509202  0.63478960  0.10799300     0.20500
C1922       C  0.40425698  0.64453277  0.09638609    -0.39300
C1923       C  0.41502395  0.64117423  0.08103171     0.19500
C1924       C  0.44459091  0.62917706  0.07749905     0.22200
C1925       C  0.97614464  0.62363165  0.09031518    -0.39800
C1926       C  0.45398595  0.62204294  0.10456206     0.21000
N1927       N  0.41998175  0.63535539  0.12340703    -0.33100
C1928       C  0.44480158  0.62160668  0.13004205    -0.10700
C1929       C  0.46719527  0.61376191  0.11854813    -0.29500
N1930       N  0.97143212  0.64524112  0.06355420    -0.46100
C1931       C  0.43569608  0.65707709  0.05660173    -0.05400
C1932       C  0.40786797  0.65758611  0.06764062    -0.22700
H1933       H  0.38272718  0.65592984  0.09913926     0.19100
H1934       H  0.00121323  0.61661775  0.08811038     0.17900
H1935       H  0.99387986  0.60208596  0.12152510     0.14200
H1936       H  0.39102323  0.67504588  0.06680038     0.14000
H1937       H  0.39907511  0.64281840  0.12890672     0.32200
H1938       H  0.99814778  0.64581301  0.05881337     0.34900
C1939       C  0.36590355  0.81308471  0.10742146     0.20500
C1940       C  0.36751256  0.83322625  0.09319333    -0.39300
C1941       C  0.35300200  0.80548284  0.08013242     0.19500
C1942       C  0.33828368  0.76106831  0.08125082     0.22200
C1943       C  0.33754923  0.74125225  0.09542269    -0.39800
C1944       C  0.35172441  0.76893330  0.10842695     0.21000
N1945       N  0.37775869  0.83218291  0.12149137    -0.33100
C1946       C  0.37192052  0.80011823  0.13153293    -0.10700
C1947       C  0.35504402  0.76003538  0.12375243    -0.29500
N1948       N  0.31802834  0.74004469  0.06812627    -0.46100
C1949       C  0.31842433  0.77074485  0.05874574    -0.05400
C1950       C  0.34175872  0.81243228  0.06552962    -0.22700
H1951       H  0.37723843  0.86747059  0.09247806     0.19100
H1952       H  0.32474441  0.70629954  0.09637942     0.17900
H1953       H  0.34846938  0.72901066  0.12844528     0.14200
H1954       H  0.34337784  0.84196953  0.06151168     0.14000
H1955       H  0.39211885  0.86571301  0.12381497     0.32200
H1956       H  0.29981556  0.70597041  0.06651357     0.34900
C1957       C  0.49071478  0.78675611  0.11276263     0.20500
C1958       C  0.00576633  0.76365816  0.10443466    -0.39300
C1959       C  0.49380389  0.76405210  0.08697415     0.19500
C1960       C  0.48085792  0.79132788  0.08107031     0.22200
C1961       C  0.47408405  0.81878212  0.09076254    -0.39800
C1962       C  0.48034043  0.81599865  0.10676553     0.21000
N1963       N  0.48902820  0.78627432  0.12844073    -0.33100
C1964       C  0.47879554  0.81640914  0.13247630    -0.10700
C1965       C  0.47361888  0.83585751  0.11923381    -0.29500
N1966       N  0.47415651  0.78555329  0.06560371    -0.46100
C1967       C  0.48287772  0.75430780  0.06155460    -0.05400
C1968       C  0.00928413  0.74733181  0.07607278    -0.22700
H1969       H  0.01303289  0.74031536  0.10929811     0.19100
H1970       H  0.46343327  0.83980537  0.08623402     0.17900
H1971       H  0.46272804  0.85874981  0.11878549     0.14200
H1972       H  0.01895391  0.72355071  0.07685297     0.14000
H1973       H  0.99422635  0.76647102  0.13706456     0.32200
H1974       H  0.46239046  0.80042996  0.05836801     0.34900
C1975       C  0.17302241  0.65629692  0.11303299     0.20500
C1976       C  0.16235226  0.64460929  0.09731306    -0.39300
C1977       C  0.18825642  0.67711865  0.08637279     0.19500
C1978       C  0.22106682  0.71858843  0.09082440     0.22200
C1979       C  0.23285675  0.72978481  0.10650816    -0.39800
C1980       C  0.20808840  0.69666784  0.11743270     0.21000
N1981       N  0.15660513  0.62942453  0.12538160    -0.33100
C1982       C  0.18247192  0.65178633  0.13765122    -0.10700
C1983       C  0.21493197  0.69407807  0.13316131    -0.29500
N1984       N  0.24136827  0.74325544  0.07828890    -0.46100
C1985       C  0.22375948  0.71672008  0.06566483    -0.05400
C1986       C  0.18956269  0.67527950  0.07030696    -0.22700
H1987       H  0.13712474  0.61183030  0.09385501     0.19100
H1988       H  0.26074533  0.76114950  0.10986880     0.17900
H1989       H  0.24198246  0.71815307  0.14009055     0.14200
H1990       H  0.16982430  0.64688459  0.06302293     0.14000
H1991       H  0.13228372  0.59627213  0.12513858     0.32200
H1992       H  0.26575612  0.77637411  0.07849399     0.34900
C1993       C  0.33169014  0.50030212  0.11330586     0.20500
C1994       C  0.33343338  0.48585567  0.09820232    -0.39300
C1995       C  0.32030460  0.50277780  0.08603310     0.19500
C1996       C  0.30880361  0.53332793  0.08879686     0.22200
C1997       C  0.30555665  0.54639388  0.10376880    -0.39800
C1998       C  0.31648271  0.52795681  0.11586957     0.21000
N1999       N  0.34825581  0.49487192  0.12656269    -0.33100
C2000       C  0.34345786  0.51937087  0.13756306    -0.10700
C2001       C  0.32179501  0.53858192  0.13131942    -0.29500
N2002       N  0.30097403  0.54720683  0.07549057    -0.46100
C2003       C  0.30343642  0.52277483  0.06400422    -0.05400
C2004       C  0.31682013  0.49540611  0.07010025    -0.22700
H2005       H  0.34517204  0.46410290  0.09605641     0.19100
H2006       H  0.29634737  0.57026167  0.10581914     0.17900
H2007       H  0.31597864  0.56228586  0.13673428     0.14200
H2008       H  0.31424755  0.96776823  0.06313914     0.14000
H2009       H  0.36641633  0.48006398  0.12751853     0.32200
H2010       H  0.29582604  0.57307250  0.07443216     0.34900
C2011       C  0.19534841  0.51016316  0.07986887     0.20500
C2012       C  0.17888103  0.49019992  0.09445277    -0.39300
C2013       C  0.18236140  0.51846113  0.10653428     0.19500
C2014       C  0.20262471  0.56332556  0.10431651     0.22200
C2015       C  0.21750533  0.58303791  0.08966817    -0.39800
C2016       C  0.21217048  0.55458039  0.07744238     0.21000
N2017       N  0.20294534  0.49232941  0.06742016    -0.33100
C2018       C  0.22448071  0.52544012  0.05696039    -0.10700
C2019       C  0.22900371  0.56434380  0.06255676    -0.29500
N2020       N  0.20570743  0.58363878  0.11779283    -0.46100
C2021       C  0.18496994  0.55163361  0.12866549    -0.05400
C2022       C  0.17005953  0.51027459  0.12206074    -0.22700
H2023       H  0.16591241  0.45552883  0.09639842     0.19100
H2024       H  0.23364910  0.61828212  0.08804311     0.17900
H2025       H  0.24866827  0.59685668  0.05756215     0.14200
H2026       H  0.15284471  0.47866012  0.12783012     0.14000
H2027       H  0.19800492  0.46082580  0.06675213     0.32200
H2028       H  0.22096014  0.61753091  0.11936681     0.34900
C2029       C  0.13661090  0.69247749  0.96142521     0.20500
C2030       C  0.13321197  0.70437985  0.97667882    -0.39300
C2031       C  0.15696477  0.69762972  0.98802324     0.19500
C2032       C  0.18296627  0.68135252  0.98429889     0.22200
C2033       C  0.18579322  0.66880101  0.96908618    -0.39800
C2034       C  0.16121492  0.67454678  0.95783193     0.21000
N2035       N  0.11701348  0.69540346  0.94864611    -0.33100
C2036       C  0.12812541  0.67808114  0.93685739    -0.10700
C2037       C  0.15585415  0.66479826  0.94214452    -0.29500
N2038       N  0.20739646  0.68452564  0.99654201    -0.46100
C2039       C  0.19723401  0.70312880  0.00816656    -0.05400
C2040       C  0.16473193  0.71042211  0.00344523    -0.22700
H2041       H  0.11424932  0.71878940  0.97943973     0.19100
H2042       H  0.20639649  0.65639754  0.96617201     0.17900
H2043       H  0.16939642  0.64919408  0.93550223     0.14200
H2044       H  0.15320927  0.72858555  0.00966440     0.14000
H2045       H  0.09581495  0.70675396  0.94816953     0.32200
H2046       H  0.23264419  0.67862395  0.99652089     0.34900
C2047       C  0.99454393  0.64747136  0.95355588     0.20500
C2048       C  0.98904419  0.63327196  0.96907688    -0.39300
C2049       C  0.97814258  0.65581665  0.97961066     0.19500
C2050       C  0.97178291  0.68901846  0.97492670     0.22200
C2051       C  0.97813444  0.70385526  0.95943476    -0.39800
C2052       C  0.99038121  0.68220122  0.94897205     0.21000
N2053       N  0.00951572  0.63452829  0.94180661    -0.33100
C2054       C  0.01599651  0.66171843  0.92972673    -0.10700
C2055       C  0.00461616  0.69212071  0.93374341    -0.29500
N2056       N  0.45352925  0.69740695  0.98621065    -0.46100
C2057       C  0.97148255  0.68911391  0.00008639    -0.05400
C2058       C  0.97758353  0.65515502  0.99567347    -0.22700
H2059       H  0.99543651  0.60831645  0.97283123     0.19100
H2060       H  0.46567551  0.72086905  0.95489350     0.17900
H2061       H  0.00868770  0.71934300  0.92681643     0.14200
H2062       H  0.98522668  0.63581196  0.00316342     0.14000
H2063       H  0.01815289  0.61091612  0.94233355     0.32200
H2064       H  0.44634754  0.72201936  0.98547767     0.34900
C2065       C  0.31382742  0.79895747  0.98034692     0.20500
C2066       C  0.34082065  0.80916599  0.96721356    -0.39300
C2067       C  0.32602142  0.81846443  0.95336739     0.19500
C2068       C  0.28666923  0.81569269  0.95269170     0.22200
C2069       C  0.26089217  0.80721996  0.96580840    -0.39800
C2070       C  0.27647147  0.80003609  0.97959073     0.21000
N2071       N  0.31872969  0.78704957  0.99478328    -0.33100
C2072       C  0.28408301  0.78083922  0.00308274    -0.10700
C2073       C  0.25863988  0.79102515  0.99409026    -0.29500
N2074       N  0.28071412  0.82873042  0.93884572    -0.46100
C2075       C  0.31762694  0.84320428  0.93067417    -0.05400
C2076       C  0.34631983  0.83594067  0.93922207    -0.22700
H2077       H  0.37139408  0.81086843  0.96781978     0.19100
H2078       H  0.23119024  0.80732506  0.96538640     0.17900
H2079       H  0.22956120  0.79001188  0.99749321     0.14200
H2080       H  0.37945156  0.84692524  0.93633491     0.14000
H2081       H  0.34269888  0.78132183  0.99850095     0.32200
H2082       H  0.25426144  0.83123886  0.93591422     0.34900
C2083       C  0.33481556  0.99034808  0.98729276     0.20500
C2084       C  0.33583059  0.95874967  0.97794302    -0.39300
C2085       C  0.33969628  0.96686782  0.96188140     0.19500
C2086       C  0.34259193  0.00375943  0.95542782     0.22200
C2087       C  0.34140220  0.03548500  0.96479035    -0.39800
C2088       C  0.33743803  0.02730574  0.98096105     0.21000
N2089       N  0.32451992  0.98636597  0.00249636    -0.33100
C2090       C  0.31907391  0.02013749  0.00593877    -0.10700
C2091       C  0.32837306  0.04724942  0.99285949    -0.29500
N2092       N  0.34430858  0.00251127  0.93972887    -0.46100
C2093       C  0.34207514  0.96425954  0.93626274    -0.05400
C2094       C  0.33927149  0.94145828  0.94981408    -0.22700
H2095       H  0.33182386  0.92883605  0.98276699     0.19100
H2096       H  0.34155896  0.06339715  0.95981993     0.17900
H2097       H  0.32306825  0.07420722  0.99166137     0.14200
H2098       H  0.33749010  0.91049939  0.95081351     0.14000
H2099       H  0.31609912  0.95918744  0.00953973     0.32200
H2100       H  0.34598140  0.02565190  0.93187226     0.34900
C2101       C  0.06145091  0.83280133  0.95708385     0.20500
C2102       C  0.07183983  0.81132643  0.96829388    -0.39300
C2103       C  0.05511141  0.80862226  0.98319399     0.19500
C2104       C  0.02997732  0.82611045  0.98669902     0.22200
C2105       C  0.01998738  0.84803403  0.97547961    -0.39800
C2106       C  0.03653136  0.85045730  0.96053305     0.21000
N2107       N  0.07309283  0.83918054  0.94206264    -0.33100
C2108       C  0.05579390  0.86140517  0.93581850    -0.10700
C2109       C  0.03239746  0.86871088  0.94701201    -0.29500
N2110       N  0.01220792  0.81295248  0.00088022    -0.46100
C2111       C  0.02504205  0.78587255  0.00619204    -0.05400
C2112       C  0.05315461  0.78372442  0.99573150    -0.22700
H2113       H  0.08999144  0.79608776  0.96544659     0.19100
H2114       H  0.99930160  0.86058500  0.97802952     0.17900
H2115       H  0.01650143  0.88698512  0.94568950     0.14200
H2116       H  0.06547979  0.76200502  0.99630010     0.14000
H2117       H  0.09251402  0.82975336  0.93654854     0.32200
H2118       H  0.98872721  0.81769599  0.00580108     0.34900
C2119       C  0.18914384  0.00187148  0.95136528     0.20500
C2120       C  0.19413429  0.02559715  0.96507758    -0.39300
C2121       C  0.20962776  0.01412679  0.97809101     0.19500
C2122       C  0.21882533  0.98121471  0.97743514     0.22200
C2123       C  0.21478437  0.95828272  0.96372687    -0.39800
C2124       C  0.19977552  0.97003011  0.95075425     0.21000
N2125       N  0.16967261  0.00216960  0.93807490    -0.33100
C2126       C  0.16735706  0.96982182  0.92902896    -0.10700
C2127       C  0.18720633  0.95018049  0.93646872    -0.29500
N2128       N  0.23198360  0.97561376  0.99131178    -0.46100
C2129       C  0.23293547  0.00625101  0.00086171    -0.05400
C2130       C  0.21839857  0.03048565  0.99311342    -0.22700
H2131       H  0.18542514  0.05022223  0.96568653     0.19100
H2132       H  0.22159758  0.93223617  0.96331639     0.17900
H2133       H  0.18847301  0.92200345  0.93274457     0.14200
H2134       H  0.21631446  0.05752765  0.99765756     0.14000
H2135       H  0.15484491  0.02002760  0.93605778     0.32200
H2136       H  0.24071399  0.95282160  0.99402238     0.34900
C2137       C  0.57962648  0.43667189  0.89944743     0.86700
C2138       C  0.55166467  0.40497231  0.91239201    -0.53500
C2139       C  0.57135087  0.38651245  0.92015059     0.09600
C2140       C  0.61705738  0.40140061  0.91393879     0.20600
C2141       C  0.62231590  0.47047142  0.90777668    -0.54300
C2142       C  0.64130066  0.45161471  0.91573445     0.09700
C2143       C  0.59072959  0.40923694  0.88924511    -0.53800
C2144       C  0.61208326  0.39260057  0.89641804     0.10300
H2145       H  0.52031022  0.39945324  0.91555796     0.14800
H2146       H  0.63270455  0.38572424  0.91972659     0.00600
H2147       H  0.63391223  0.50527523  0.90855717     0.15100
H2148       H  0.58112314  0.40245823  0.87729787     0.14900
C2149       C  0.88524321  0.42874779  0.90020465     0.86700
C2150       C  0.88809247  0.46034453  0.91306725    -0.53500
C2151       C  0.85127214  0.44324509  0.92195732     0.09600
C2152       C  0.81480163  0.39679936  0.91674974     0.20600
C2153       C  0.87300796  0.38587909  0.90917450    -0.54300
C2154       C  0.83625912  0.36955852  0.91808507     0.09700
C2155       C  0.84486863  0.41789172  0.89105372    -0.53800
C2156       C  0.80781825  0.39990337  0.89927590     0.10300
H2157       H  0.91774344  0.49105907  0.91585739     0.14800
H2158       H  0.78481147  0.38464510  0.92355832     0.00600
H2159       H  0.89311569  0.37176474  0.90932314     0.15100
H2160       H  0.84544817  0.42431995  0.87885624     0.14900
C2161       C  0.56165230  0.12094602  0.89939241     0.86700
C2162       C  0.59121002  0.12568732  0.91303765    -0.53500
C2163       C  0.60507140  0.16329329  0.92164438     0.09600
C2164       C  0.58867346  0.19267239  0.91551021     0.20600
C2165       C  0.52511366  0.12431673  0.90707448    -0.54300
C2166       C  0.53913909  0.16130316  0.91586943     0.09700
C2167       C  0.58816986  0.16286416  0.89024543    -0.53800
C2168       C  0.60183198  0.20035990  0.89819426     0.10300
H2169       H  0.59778984  0.10036521  0.91622031     0.14800
H2170       H  0.60035305  0.22359669  0.92213678     0.00600
H2171       H  0.49193740  0.09662937  0.90762161     0.15100
H2172       H  0.59717433  0.16304152  0.87839007     0.14900
Fe2173     Fe  0.71000406  0.30125917  0.87020499     1.65800
Fe2174     Fe  0.61506615  0.29718340  0.86468152     1.73200
Fe2175     Fe  0.70998422  0.39526977  0.86711433     1.54400
O2176       O  0.75898969  0.40401390  0.88216910    -0.81500
O2177       O  0.61683476  0.33190494  0.84504991    -0.79800
O2178       O  0.74296322  0.33791804  0.88980311    -0.84000
O2179       O  0.75920007  0.34441435  0.85528061    -0.78800
O2180       O  0.67362585  0.39515889  0.88586548    -0.80600
O2181       O  0.61491858  0.25059200  0.84996636    -0.83300
C2182       C  0.76703237  0.37695604  0.84671718     0.97400
C2183       C  0.76626285  0.37948193  0.89062941     1.04900
O2184       O  0.67814331  0.33093935  0.86733627    -1.12300
O2185       O  0.60537656  0.25856384  0.88410236    -0.74800
O2186       O  0.66407383  0.25372078  0.88497479    -0.78200
O2187       O  0.74694316  0.39717849  0.84827748    -0.78900
C2188       C  0.62612114  0.24182317  0.88942244     0.96300
O2189       O  0.68112088  0.26151826  0.85102197    -0.76900
O2190       O  0.60766199  0.33976972  0.87893780    -0.82100
C2191       C  0.63517579  0.37330449  0.84370879     0.98900
C2192       C  0.63246452  0.37381865  0.88703120     1.04900
O2193       O  0.66790700  0.39956899  0.85186785    -0.77700
C2194       C  0.64312793  0.24218028  0.84540212     1.03200
C2195       C  0.75866892  0.51866588  0.01633280     0.02500
C2196       C  0.79682003  0.51832197  0.01946389     0.02500
C2197       C  0.80915256  0.51819357  0.03498337    -0.18100
C2198       C  0.78118456  0.01676410  0.04795317     0.02500
C2199       C  0.74314425  0.01805919  0.04535786     0.02500
C2200       C  0.73598058  0.52284465  0.02874980    -0.18100
H2201       H  0.70695608  0.52335807  0.02639089     0.04500
H2202       H  0.83765590  0.51670619  0.03731119     0.04500
C2203       C  0.62728650  0.06448943  0.16696222     0.86700
C2204       C  0.63668824  0.10862461  0.16013016    -0.53500
C2205       C  0.67446904  0.13158585  0.15204324     0.09600
C2206       C  0.70125313  0.10964267  0.15252700     0.20600
C2207       C  0.63127370  0.03994583  0.15284930    -0.54300
C2208       C  0.67030039  0.06402830  0.14513420     0.09700
C2209       C  0.66638023  0.07555375  0.17684088    -0.53800
C2210       C  0.70508434  0.09996620  0.16974793     0.10300
H2211       H  0.61171852  0.11649190  0.15904135     0.14800
H2212       H  0.73310128  0.12931557  0.14667131     0.00600
H2213       H  0.60492184  0.00835221  0.14875940     0.15100
H2214       H  0.66352846  0.06273383  0.18837164     0.14900
C2215       C  0.94815899  0.36023954  0.16584957     0.86700
C2216       C  0.98312485  0.35340922  0.15857101    -0.53500
C2217       C  0.96704776  0.31393185  0.15097399     0.09600
C2218       C  0.91762950  0.28369720  0.15261367     0.20600
C2219       C  0.91736332  0.35218203  0.15214532    -0.54300
C2220       C  0.90143119  0.31184224  0.14505520     0.09700
C2221       C  0.92210296  0.32130734  0.17641330    -0.53800
C2222       C  0.90686462  0.28149808  0.17005443     0.10300
H2223       H  0.01600430  0.38072527  0.15671987     0.14800
H2224       H  0.90492219  0.25079743  0.14732874     0.00600
H2225       H  0.91109204  0.37691347  0.14790834     0.15100
H2226       H  0.91522334  0.32524047  0.18814459     0.14900
C2227       C  0.92427562  0.04645661  0.16539114     0.86700
C2228       C  0.88044458  0.01036130  0.15819458    -0.53500
C2229       C  0.85719392  0.02653105  0.15151894     0.09600
C2230       C  0.87888523  0.07654292  0.15357520     0.20600
C2231       C  0.94710467  0.07866812  0.15186332    -0.54300
C2232       C  0.92267458  0.09384107  0.14533806     0.09700
C2233       C  0.91346566  0.07205278  0.17664572    -0.53800
C2234       C  0.88838449  0.08622025  0.17090819     0.10300
H2235       H  0.87216040  0.97672900  0.15641422     0.14800
H2236       H  0.86034146  0.09078610  0.14914011     0.00600
H2237       H  0.97717115  0.08473790  0.14689154     0.15100
H2238       H  0.92703032  0.08022314  0.18808859     0.14900
Fe2239     Fe  0.80228835  0.18749954  0.20137030     1.65800
Fe2240     Fe  0.89343249  0.18508116  0.20318926     1.73200
Fe2241     Fe  0.79640299  0.09040793  0.20147291     1.54400
O2242       O  0.76009222  0.08700066  0.22070202    -0.81500
O2243       O  0.89728980  0.13861408  0.18975135    -0.79800
O2244       O  0.75023416  0.14193292  0.21489016    -0.84000
O2245       O  0.76989338  0.15721971  0.18096966    -0.78800
O2246       O  0.83896544  0.08462544  0.21627816    -0.80600
O2247       O  0.89959446  0.21918314  0.18282516    -0.83300
C2248       C  0.74492645  0.11611264  0.17905830     0.97400
C2249       C  0.73996759  0.10701737  0.22243306     1.04900
O2250       O  0.83059704  0.15422324  0.20208067    -1.12300
O2251       O  0.89885164  0.23617644  0.21697686    -0.74800
O2252       O  0.83199402  0.21996347  0.22177213    -0.78200
O2253       O  0.74933448  0.08816820  0.18674334    -0.78900
C2254       C  0.87235009  0.24287823  0.22430717     0.96300
O2255       O  0.85089173  0.23744263  0.18775430    -0.76900
O2256       O  0.89103809  0.15218248  0.22331358    -0.82100
C2257       C  0.87092098  0.10658493  0.18116164     0.98900
C2258       C  0.87219190  0.11063711  0.22444295     1.04900
O2259       O  0.83019051  0.08940349  0.18207389    -0.77700
C2260       C  0.88334182  0.24245537  0.18020207     1.03200
C2261       C  0.46681009  0.20542436  0.01519226     0.02500
C2262       C  0.48929277  0.25152884  0.01783793     0.02500
C2263       C  0.49399918  0.26797440  0.03301669    -0.18100
C2264       C  0.98786321  0.24418927  0.04777371     0.02500
C2265       C  0.96153972  0.19848968  0.04448216     0.02500
C2266       C  0.44967653  0.17697383  0.02803982    -0.18100
H2267       H  0.43219803  0.14169283  0.02620499     0.04500
H2268       H  0.51221540  0.30325838  0.03487562     0.04500
C2269       C  0.76459027  0.24239983  0.01780023     0.02500
C2270       C  0.72085818  0.20954365  0.02097153     0.02500
C2271       C  0.70664424  0.19837256  0.03633336    -0.18100
C2272       C  0.73579255  0.21641884  0.04879514     0.02500
C2273       C  0.78071875  0.24355156  0.04552113     0.02500
C2274       C  0.79451472  0.25774854  0.03014490    -0.18100
H2275       H  0.82846734  0.28089326  0.02783656     0.04500
H2276       H  0.67255768  0.17552647  0.03853407     0.04500
C2277       C  0.97107824  0.23015468  0.50078865     0.86700
C2278       C  0.98123435  0.27283571  0.49250367    -0.53500
C2279       C  0.52265067  0.29870970  0.48523228     0.09600
C2280       C  0.54848468  0.27593771  0.48686763     0.20600
C2281       C  0.97495630  0.20246136  0.48783862    -0.54300
C2282       C  0.51705654  0.22952420  0.48018466     0.09700
C2283       C  0.51222614  0.24562890  0.51136241    -0.53800
C2284       C  0.55141141  0.26855568  0.50440517     0.10300
H2285       H  0.95676165  0.28108793  0.49063356     0.14800
H2286       H  0.58055109  0.29416076  0.48107820     0.00600
H2287       H  0.94834982  0.17027758  0.48433575     0.15100
H2288       H  0.00649569  0.23367233  0.52322628     0.14900
C2289       C  0.77106596  0.22261107  0.49893767     0.86700
C2290       C  0.72910840  0.19092537  0.48968561    -0.53500
C2291       C  0.70929971  0.21140083  0.48328224     0.09600
C2292       C  0.73185906  0.26034026  0.48784979     0.20600
C2293       C  0.79858142  0.25957920  0.48725554    -0.54300
C2294       C  0.77760639  0.27896948  0.48116227     0.09700
C2295       C  0.75766018  0.24412438  0.51101959    -0.53800
C2296       C  0.73627340  0.26275305  0.50554496     0.10300
H2297       H  0.71991989  0.15759092  0.48675075     0.14800
H2298       H  0.71576482  0.27763849  0.48390766     0.00600
H2299       H  0.82928446  0.26584372  0.48285350     0.15100
H2300       H  0.76608967  0.24534651  0.52299887     0.14900
C2301       C  0.78394643  0.03137245  0.49990169     0.86700
C2302       C  0.81745677  0.02729600  0.49028462    -0.53500
C2303       C  0.80950438  0.49413126  0.48472197     0.09600
C2304       C  0.76052982  0.46069019  0.48576990     0.20600
C2305       C  0.74743928  0.02024194  0.48804016    -0.54300
C2306       C  0.74174793  0.48615491  0.47770249     0.09700
C2307       C  0.75967470  0.49651344  0.50947165    -0.53800
C2308       C  0.74845476  0.45737307  0.50322080     0.10300
H2309       H  0.84889290  0.05573417  0.48739010     0.14800
H2310       H  0.75081914  0.42843452  0.48051977     0.00600
H2311       H  0.73869503  0.04382443  0.48465534     0.15100
H2312       H  0.76529672  0.99706648  0.52324429     0.14900
Fe2313     Fe  0.64835998  0.36208597  0.53530382     1.65800
Fe2314     Fe  0.64485187  0.26624584  0.53749605     1.73200
Fe2315     Fe  0.74213470  0.36340368  0.53719644     1.54400
O2316       O  0.74697854  0.39821371  0.51686436    -0.81500
O2317       O  0.68778790  0.26310654  0.55300089    -0.79800
O2318       O  0.69400626  0.41076566  0.52083012    -0.84000
O2319       O  0.67949864  0.39771976  0.55496218    -0.78800
O2320       O  0.74608174  0.31784747  0.52328266    -0.80600
O2321       O  0.60780741  0.26460926  0.55627390    -0.83300
C2322       C  0.71970081  0.42080562  0.55792224     0.97400
C2323       C  0.72771718  0.41836796  0.51362720     1.04900
O2324       O  0.67856531  0.33048676  0.53670157    -1.12300
O2325       O  0.59706936  0.26050795  0.52214163    -0.74800
O2326       O  0.61462576  0.32822737  0.51554647    -0.78200
O2327       O  0.74695808  0.41392304  0.55126842    -0.78900
C2328       C  0.59111476  0.28680672  0.51403120     0.96300
O2329       O  0.59756494  0.31854438  0.54951873    -0.76900
O2330       O  0.67859552  0.26227115  0.51864480    -0.82100
C2331       C  0.72337915  0.28989725  0.55985402     0.98900
C2332       C  0.71915973  0.28260728  0.51617449     1.04900
O2333       O  0.74364869  0.33115666  0.55725422    -0.77700
C2334       C  0.58715104  0.28426555  0.55739955     1.03200
C2335       C  0.69969366  0.08733217  0.23247479     0.86700
C2336       C  0.70085035  0.11758419  0.24535583    -0.53500
C2337       C  0.66284357  0.10019373  0.25339089     0.09600
C2338       C  0.62700316  0.05426327  0.24755029     0.20600
C2339       C  0.68600592  0.04360419  0.24104092    -0.54300
C2340       C  0.64830726  0.02682787  0.24942484     0.09700
C2341       C  0.66103659  0.07760069  0.22247881    -0.53800
C2342       C  0.62277155  0.05894524  0.22995037     0.10300
H2343       H  0.73025445  0.14770375  0.24884202     0.14800
H2344       H  0.59575018  0.04164533  0.25352371     0.00600
H2345       H  0.70670177  0.03024475  0.24174561     0.15100
H2346       H  0.66375149  0.08529095  0.21033063     0.14900
C2347       C  0.89013330  0.28387083  0.23425309     0.86700
C2348       C  0.92464524  0.29186028  0.24635492    -0.53500
C2349       C  0.94135240  0.33108226  0.25418671     0.09600
C2350       C  0.92314766  0.35941742  0.24849512     0.20600
C2351       C  0.85676933  0.28917417  0.24353699    -0.54300
C2352       C  0.87405566  0.32846859  0.25129877     0.09700
C2353       C  0.91243066  0.32342585  0.22368714    -0.53800
C2354       C  0.92969204  0.36296786  0.23058824     0.10300
H2355       H  0.93135732  0.26667842  0.24961678     0.14800
H2356       H  0.93745815  0.39178742  0.25439557     0.00600
H2357       H  0.82391238  0.26202238  0.24555660     0.15100
H2358       H  0.91549969  0.32011916  0.21152149     0.14900
C2359       C  0.89376006  0.09099635  0.23349800     0.86700
C2360       C  0.86456168  0.05306147  0.24447690    -0.53500
C2361       C  0.88490634  0.03404511  0.25136737     0.09600
C2362       C  0.93230177  0.05415502  0.24598505     0.20600
C2363       C  0.93345502  0.12271130  0.24363674    -0.54300
C2364       C  0.95313088  0.10293019  0.25050459     0.09700
C2365       C  0.90999714  0.07086355  0.22197791    -0.53800
C2366       C  0.93126411  0.05282138  0.22814137     0.10300
H2367       H  0.83202195  0.04457698  0.24734888     0.14800
H2368       H  0.94831008  0.03768390  0.25086715     0.00600
H2369       H  0.94228917  0.15610827  0.24631812     0.15100
H2370       H  0.90324859  0.06968454  0.20985510     0.14900
Fe2371     Fe  0.53386046  0.46132928  0.19947741     1.65800
Fe2372     Fe  0.93965850  0.45755478  0.19632890     1.73200
Fe2373     Fe  0.52631302  0.05580982  0.19713009     1.54400
O2374       O  0.57518477  0.06424919  0.21238977    -0.81500
O2375       O  0.93993259  0.49059115  0.17644860    -0.79800
O2376       O  0.56673592  0.49609565  0.21931402    -0.84000
O2377       O  0.57860663  0.00784746  0.18482420    -0.78800
O2378       O  0.49028924  0.05534625  0.21608467    -0.80600
O2379       O  0.93721745  0.40897175  0.18186835    -0.83300
C2380       C  0.58642441  0.04146143  0.17689381     0.97400
C2381       C  0.58242730  0.03910561  0.22057886     1.04900
O2382       O  0.50321236  0.49257023  0.19748684    -1.12300
O2383       O  0.93276870  0.42150101  0.21635714    -0.74800
O2384       O  0.98798544  0.41134581  0.21416181    -0.78200
O2385       O  0.56401384  0.05924403  0.17841055    -0.78900
C2386       C  0.95256463  0.40256008  0.22046688     0.96300
O2387       O  0.00425205  0.42266309  0.17969621    -0.76900
O2388       O  0.93365913  0.50193647  0.21038562    -0.82100
C2389       C  0.94933617  0.03007822  0.17428806     0.98900
C2390       C  0.95114078  0.03507627  0.21785625     1.04900
O2391       O  0.98288460  0.05804784  0.18187852    -0.77700
C2392       C  0.96464592  0.40137062  0.17576343     1.03200
C2393       C  0.55978216  0.15742332  0.37994073     0.02500
C2394       C  0.59949248  0.15912785  0.38101476     0.02500
C2395       C  0.61920123  0.15648598  0.36742561    -0.18100
C2396       C  0.60011078  0.15251831  0.35282525     0.02500
C2397       C  0.55848060  0.14697990  0.35190117     0.02500
C2398       C  0.53932759  0.15072008  0.36547916    -0.18100
H2399       H  0.50829060  0.14811785  0.36482615     0.04500
H2400       H  0.65064773  0.16002146  0.36814150     0.04500
C2401       C  0.81991153  0.38499658  0.38058462     0.02500
C2402       C  0.84608248  0.43099237  0.38346076     0.02500
C2403       C  0.86333364  0.45964833  0.37070368    -0.18100
C2404       C  0.85729900  0.44351533  0.35542060     0.02500
C2405       C  0.83279264  0.39744471  0.35256969     0.02500
C2406       C  0.81457718  0.36884364  0.36532440    -0.18100
H2407       H  0.79516178  0.33364456  0.36334624     0.04500
H2408       H  0.88298880  0.49483402  0.37268925     0.04500
C2409       C  0.62352893  0.41310974  0.37743980     0.02500
C2410       C  0.57896474  0.38344510  0.38087989     0.02500
C2411       C  0.54938966  0.36365801  0.36846659    -0.18100
C2412       C  0.56255334  0.37539272  0.35296411     0.02500
C2413       C  0.60547131  0.41012038  0.34980443     0.02500
C2414       C  0.63595775  0.42739426  0.36199626    -0.18100
H2415       H  0.66934332  0.45219652  0.35948887     0.04500
H2416       H  0.51580301  0.33925919  0.37082972     0.04500
C2417       C  0.80478381  0.39411747  0.83552760     0.86700
C2418       C  0.81528648  0.43528768  0.82593342    -0.53500
C2419       C  0.85145873  0.45132280  0.81682944     0.09600
C2420       C  0.87434536  0.42545520  0.81860474     0.20600
C2421       C  0.80207588  0.36124239  0.82331678    -0.54300
C2422       C  0.83836903  0.37786927  0.81421866     0.09700
C2423       C  0.84572143  0.40721278  0.84461543    -0.53800
C2424       C  0.88236767  0.42487877  0.83618423     0.10300
H2425       H  0.79450884  0.44861628  0.82562623     0.14800
H2426       H  0.90407315  0.43763649  0.81162544     0.00600
H2427       H  0.77266925  0.32981240  0.82102303     0.15100
H2428       H  0.84580930  0.40238752  0.85690726     0.14900
C2429       C  0.62941285  0.20337663  0.83461419     0.86700
C2430       C  0.66693115  0.19924061  0.82830430    -0.53500
C2431       C  0.65427184  0.16270380  0.81935843     0.09600
C2432       C  0.60456124  0.13180274  0.81864395     0.20600
C2433       C  0.60315007  0.19961420  0.82001557    -0.54300
C2434       C  0.59041567  0.16215340  0.81146921     0.09700
C2435       C  0.60011134  0.16122988  0.84340023    -0.53800
C2436       C  0.58743794  0.12357451  0.83564012     0.10300
H2437       H  0.70019323  0.22686571  0.82835850     0.14800
H2438       H  0.59385362  0.10102112  0.81205202     0.00600
H2439       H  0.59784371  0.22541903  0.81626838     0.15100
H2440       H  0.58849446  0.16111690  0.85484584     0.14900
C2441       C  0.61503854  0.39274945  0.83361056     0.86700
C2442       C  0.57435563  0.35956247  0.82415524    -0.53500
C2443       C  0.55588319  0.37866771  0.81603150     0.09600
C2444       C  0.57899415  0.42865177  0.81853004     0.20600
C2445       C  0.64506218  0.42684605  0.82159883    -0.54300
C2446       C  0.62611986  0.44522548  0.81340440     0.09700
C2447       C  0.60075440  0.41765845  0.84375783    -0.53800
C2448       C  0.58008996  0.43473966  0.83630801     0.10300
H2449       H  0.56310236  0.32488096  0.82316128     0.14800
H2450       H  0.56483240  0.44524422  0.81225466     0.00600
H2451       H  0.67628766  0.43178075  0.81853933     0.15100
H2452       H  0.60794919  0.42263800  0.85591522     0.14900
Fe2453     Fe  0.97673705  0.02468539  0.86521419     1.65800
Fe2454     Fe  0.98113573  0.43009939  0.86785939     1.73200
Fe2455     Fe  0.56996086  0.02486304  0.86866322     1.54400
O2456       O  0.57891675  0.06045839  0.84834674    -0.81500
O2457       O  0.52388535  0.42833260  0.88239789    -0.79800
O2458       O  0.52515727  0.07280720  0.85013648    -0.84000
O2459       O  0.50719439  0.06210669  0.88413854    -0.78800
O2460       O  0.58368517  0.48925011  0.85276308    -0.80600
O2461       O  0.94379633  0.42688926  0.88699685    -0.83300
C2462       C  0.54640273  0.08231918  0.88850848     0.97400
C2463       C  0.56122317  0.08157140  0.84440709     1.04900
O2464       O  0.51261677  0.49525438  0.86642057    -1.12300
O2465       O  0.93212828  0.42130339  0.85283801    -0.74800
O2466       O  0.94604075  0.48744175  0.84599135    -0.78200
O2467       O  0.57405591  0.07489122  0.88256767    -0.78900
C2468       C  0.92403916  0.44584935  0.84471715     0.96300
O2469       O  0.93150006  0.47988349  0.88068519    -0.76900
O2470       O  0.51819519  0.42990386  0.84811729    -0.82100
C2471       C  0.55871010  0.45535526  0.88944091     0.98900
C2472       C  0.55898835  0.45324584  0.84567877     1.04900
O2473       O  0.57869395  0.49643579  0.88689455    -0.77700
C2474       C  0.92352195  0.44679512  0.88896280     1.03200
C2475       C  0.73554889  0.46244380  0.56736166     0.86700
C2476       C  0.76973862  0.47477069  0.58023440    -0.53500
C2477       C  0.77938169  0.00683756  0.58844181     0.09600
C2478       C  0.76054674  0.03454775  0.58282053     0.20600
C2479       C  0.69902865  0.46471213  0.57557409    -0.54300
C2480       C  0.71166430  0.00347636  0.58615372     0.09700
C2481       C  0.75646695  0.50118839  0.55639511    -0.53800
C2482       C  0.76567614  0.03728456  0.56486877     0.10300
H2483       H  0.77938362  0.45237534  0.58423978     0.14800
H2484       H  0.77515244  0.06726288  0.58848641     0.00600
H2485       H  0.66800491  0.43520067  0.57812473     0.15100
H2486       H  0.76273126  0.49784225  0.54445670     0.14900
C2487       C  0.54578457  0.26442635  0.56690253     0.86700
C2488       C  0.54504040  0.29343121  0.57995326    -0.53500
C2489       C  0.00482613  0.27078160  0.58828045     0.09600
C2490       C  0.96930013  0.22579117  0.58154029     0.20600
C2491       C  0.53149464  0.22014849  0.57504306    -0.54300
C2492       C  0.98981275  0.19766959  0.58292496     0.09700
C2493       C  0.50804911  0.25515147  0.55638139    -0.53800
C2494       C  0.96658442  0.23242387  0.56398508     0.10300
H2495       H  0.57386503  0.32329294  0.58397595     0.14800
H2496       H  0.93774105  0.21292375  0.58730382     0.00600
H2497       H  0.55213910  0.20673756  0.57584195     0.15100
H2498       H  0.51209242  0.26391839  0.54429012     0.14900
C2499       C  0.74610807  0.27049322  0.56867928     0.86700
C2500       C  0.72112707  0.23651686  0.58168046    -0.53500
C2501       C  0.74319913  0.21797814  0.58769417     0.09600
C2502       C  0.78706462  0.23439310  0.57963872     0.20600
C2503       C  0.79016172  0.30357342  0.57649968    -0.54300
C2504       C  0.81091583  0.28413436  0.58287145     0.09700
C2505       C  0.75603030  0.24552221  0.55682104    -0.53800
C2506       C  0.77859629  0.22804689  0.56213199     0.10300
H2507       H  0.69181035  0.23188758  0.58685023     0.14800
H2508       H  0.80395695  0.21791108  0.58361849     0.00600
H2509       H  0.79998385  0.33736385  0.57896993     0.15100
H2510       H  0.74513292  0.24188082  0.54504452     0.14900
Fe2511     Fe  0.87044153  0.13264209  0.53353924     1.65800
Fe2512     Fe  0.77560721  0.12993389  0.52965625     1.73200
Fe2513     Fe  0.87164014  0.22742239  0.53023678     1.54400
O2514       O  0.92018296  0.23628534  0.54555224    -0.81500
O2515       O  0.77482052  0.16203209  0.50957374    -0.79800
O2516       O  0.90465727  0.16995009  0.55294579    -0.84000
O2517       O  0.92059573  0.17541718  0.51865699    -0.78800
O2518       O  0.83710928  0.23018483  0.54905161    -0.80600
O2519       O  0.77326636  0.08111169  0.51538088    -0.83300
C2520       C  0.92984972  0.20905928  0.51049893     0.97400
C2521       C  0.92701251  0.21161748  0.55413980     1.04900
O2522       O  0.83913897  0.16317775  0.53107737    -1.12300
O2523       O  0.76837561  0.09420290  0.54977881    -0.74800
O2524       O  0.82471371  0.08561242  0.54879914    -0.78200
O2525       O  0.90856813  0.22818261  0.51160344    -0.78900
C2526       C  0.78864366  0.07640353  0.55457798     0.96300
O2527       O  0.83979265  0.09277170  0.51429468    -0.76900
O2528       O  0.77006470  0.17459941  0.54369586    -0.82100
C2529       C  0.79388728  0.20330056  0.50757992     0.98900
C2530       C  0.79638931  0.20924233  0.55127788     1.04900
O2531       O  0.82855878  0.23002097  0.51484685    -0.77700
C2532       C  0.80060778  0.07266403  0.50976206     1.03200
C2533       C  0.92138961  0.30343885  0.71767830     0.02500
C2534       C  0.88142303  0.30100640  0.71552358     0.02500
C2535       C  0.86618501  0.29984133  0.70037934    -0.18100
C2536       C  0.88946588  0.30033843  0.68728608     0.02500
C2537       C  0.92959973  0.30310706  0.68934159     0.02500
C2538       C  0.94445114  0.30332954  0.70452464    -0.18100
H2539       H  0.97541388  0.30619822  0.70608770     0.04500
H2540       H  0.83571110  0.29803698  0.69878394     0.04500
C2541       C  0.72206308  0.12504139  0.71900392     0.02500
C2542       C  0.69614301  0.07868234  0.71701502     0.02500
C2543       C  0.68937975  0.06014122  0.70207700    -0.18100
C2544       C  0.70575576  0.08658472  0.68871435     0.02500
C2545       C  0.73161015  0.13313461  0.69056825     0.02500
C2546       C  0.73896011  0.15173075  0.70562933    -0.18100
H2547       H  0.75858478  0.18716695  0.70694802     0.04500
H2548       H  0.66929944  0.02471591  0.70080118     0.04500
C2549       C  0.96116647  0.10353877  0.71213807     0.02500
C2550       C  0.92068237  0.06460639  0.71520116     0.02500
C2551       C  0.89158212  0.04252076  0.70292675    -0.18100
C2552       C  0.90225970  0.05787056  0.68763178     0.02500
C2553       C  0.94278037  0.09650219  0.68450668     0.02500
C2554       C  0.97208597  0.11859823  0.69674252    -0.18100
H2555       H  0.00279265  0.14847115  0.69435120     0.04500
H2556       H  0.86060936  0.01289672  0.70526042     0.04500
C2557       C  0.86447479  0.28289997  0.64685750     0.20500
C2558       C  0.86782248  0.26881718  0.63206744    -0.39300
C2559       C  0.86013338  0.28886186  0.61957563     0.19500
C2560       C  0.84837614  0.31950791  0.62155743     0.22200
C2561       C  0.84652793  0.33490220  0.63646726    -0.39800
C2562       C  0.85569760  0.31574671  0.64906115     0.21000
N2563       N  0.87220928  0.26989162  0.66041906    -0.33100
C2564       C  0.87118009  0.29632063  0.67144913    -0.10700
C2565       C  0.85977146  0.32472024  0.66487576    -0.29500
N2566       N  0.83511548  0.32720239  0.60790640    -0.46100
C2567       C  0.83821373  0.30091194  0.59720462    -0.05400
C2568       C  0.85588650  0.27837244  0.60410880    -0.22700
H2569       H  0.87516931  0.24341169  0.63041382     0.19100
H2570       H  0.83796425  0.35938324  0.63814838     0.17900
H2571       H  0.85819798  0.35070652  0.67066195     0.14200
H2572       H  0.85985902  0.25303124  0.59906426     0.14000
H2573       H  0.88054175  0.24627066  0.66192543     0.32200
H2574       H  0.81998299  0.34498302  0.60645466     0.34900
C2575       C  0.76558368  0.17308340  0.65229390     0.20500
C2576       C  0.77106533  0.16440884  0.63682941    -0.39300
C2577       C  0.75511660  0.18022494  0.62538175     0.19500
C2578       C  0.73599623  0.20379424  0.62896601     0.22200
C2579       C  0.73070844  0.21277412  0.64444140    -0.39800
C2580       C  0.74574630  0.19603815  0.65596874     0.21000
N2581       N  0.76977626  0.15381512  0.66503116    -0.33100
C2582       C  0.75045916  0.16241387  0.67679788    -0.10700
C2583       C  0.73693713  0.19044652  0.67172609    -0.29500
N2584       N  0.72472685  0.21622304  0.61590207    -0.46100
C2585       C  0.73705984  0.20070489  0.60385426    -0.05400
C2586       C  0.75546691  0.17740933  0.60942954    -0.22700
H2587       H  0.78475838  0.14476152  0.63394149     0.19100
H2588       H  0.71410828  0.22960858  0.64731422     0.17900
H2589       H  0.71676409  0.19913119  0.67803724     0.14200
H2590       H  0.77003367  0.16294798  0.60272415     0.14000
H2591       H  0.77943833  0.13097743  0.66520346     0.32200
H2592       H  0.71250822  0.23687251  0.61525136     0.34900
C2593       C  0.99563399  0.27815457  0.62957388     0.20500
C2594       C  0.98924482  0.26282169  0.64499794    -0.39300
C2595       C  0.98056985  0.28644276  0.65589718     0.19500
C2596       C  0.97861526  0.32273504  0.65170408     0.22200
C2597       C  0.98476781  0.33791618  0.63622889    -0.39800
C2598       C  0.99334932  0.31419668  0.62530858     0.21000
N2599       N  0.00143688  0.25956090  0.61700878    -0.33100
C2600       C  0.00249921  0.28340011  0.60455224    -0.10700
C2601       C  0.99787561  0.31811390  0.60925835    -0.29500
N2602       N  0.96490023  0.33622427  0.66374682    -0.46100
C2603       C  0.95688298  0.30777814  0.67562797    -0.05400
C2604       C  0.96730929  0.27682490  0.67124276    -0.22700
H2605       H  0.49946400  0.24344939  0.64746275     0.19100
H2606       H  0.98119205  0.36500164  0.63283275     0.17900
H2607       H  0.99620807  0.34176278  0.60190691     0.14200
H2608       H  0.96122606  0.24820519  0.67776532     0.14000
H2609       H  0.51325445  0.24170907  0.61616177     0.32200
H2610       H  0.95771126  0.36092366  0.66345939     0.34900
C2611       C  0.94544655  0.13765673  0.61760674     0.20500
C2612       C  0.92258840  0.13319824  0.63124097    -0.39300
C2613       C  0.94016798  0.12790662  0.64488916     0.19500
C2614       C  0.97633017  0.12458447  0.64499894     0.22200
C2615       C  0.50671826  0.13691819  0.63131788    -0.39800
C2616       C  0.98355722  0.13781388  0.61768204     0.21000
N2617       N  0.93940214  0.15118169  0.60387851    -0.33100
C2618       C  0.97545349  0.16375069  0.59535124    -0.10700
C2619       C  0.50762773  0.15996149  0.60337951    -0.29500
N2620       N  0.98441910  0.11643701  0.65950785    -0.46100
C2621       C  0.95322025  0.11502134  0.66858472    -0.05400
C2622       C  0.92637005  0.12401128  0.65992013    -0.22700
H2623       H  0.89430144  0.13590306  0.63131134     0.19100
H2624       H  0.53634524  0.13668251  0.63108739     0.17900
H2625       H  0.53973041  0.16871660  0.59984600     0.14200
H2626       H  0.89878245  0.12505025  0.66394040     0.14000
H2627       H  0.91424736  0.15623846  0.60144660     0.32200
H2628       H  0.00807534  0.10987117  0.66287553     0.34900
C2629       C  0.85412869  0.01143065  0.65113358     0.20500
C2630       C  0.85536814  0.99843167  0.63579680    -0.39300
C2631       C  0.83198596  0.00663360  0.62472062     0.19500
C2632       C  0.81047520  0.02766923  0.62858246     0.22200
C2633       C  0.80806509  0.03940174  0.64396166    -0.39800
C2634       C  0.83008878  0.02974613  0.65513212     0.21000
N2635       N  0.87908873  0.01394731  0.66314742    -0.33100
C2636       C  0.87086681  0.03381976  0.67490341    -0.10700
C2637       C  0.83913115  0.04255842  0.67050086    -0.29500
N2638       N  0.79267727  0.03377513  0.61590463    -0.46100
C2639       C  0.80077093  0.01450678  0.60389982    -0.05400
C2640       C  0.82565513  0.99747746  0.60896398    -0.22700
H2641       H  0.86344030  0.49363726  0.63703454     0.19100
H2642       H  0.79142994  0.05615648  0.64693144     0.17900
H2643       H  0.82954707  0.06228838  0.67679021     0.14200
H2644       H  0.83334457  0.48610899  0.60518106     0.14000
H2645       H  0.90375561  0.00721094  0.66280572     0.32200
H2646       H  0.77479847  0.04893496  0.61564205     0.34900
C2647       C  0.68617247  0.00244784  0.62628411     0.20500
C2648       C  0.69067247  0.99500663  0.64206766    -0.39300
C2649       C  0.68872600  0.02356033  0.65280895     0.19500
C2650       C  0.68129111  0.05604449  0.64818698     0.22200
C2651       C  0.67784656  0.06421489  0.63237515    -0.39800
C2652       C  0.68150324  0.03675224  0.62159009     0.21000
N2653       N  0.69958004  0.48020651  0.61058999    -0.33100
C2654       C  0.69334783  0.00650481  0.60122246    -0.10700
C2655       C  0.68664611  0.04016307  0.60556211    -0.29500
N2656       N  0.68298934  0.08014823  0.66049301    -0.46100
C2657       C  0.69404686  0.06480367  0.67300631    -0.05400
C2658       C  0.69683681  0.02862654  0.66866909    -0.22700
H2659       H  0.71515451  0.46999595  0.64148406     0.19100
H2660       H  0.67503226  0.09158641  0.62872178     0.17900
H2661       H  0.68896334  0.06590286  0.59820541     0.14200
H2662       H  0.70628610  0.01032773  0.67593184     0.14000
H2663       H  0.71351996  0.46108594  0.61003634     0.32200
H2664       H  0.67807449  0.10637696  0.66023418     0.34900
C2665       C  0.95892341  0.33701234  0.75681635     0.20500
C2666       C  0.47109246  0.36526574  0.76955559    -0.39300
C2667       C  0.48869417  0.35492335  0.78210222     0.19500
C2668       C  0.99461697  0.31936269  0.78191398     0.22200
C2669       C  0.98810869  0.29530026  0.76808105    -0.39800
C2670       C  0.96926542  0.30504744  0.75558230     0.21000
N2671       N  0.94330757  0.34184054  0.74336117    -0.33100
C2672       C  0.94146830  0.31146600  0.73344748    -0.10700
C2673       C  0.95824723  0.28824869  0.74056935    -0.29500
N2674       N  0.52217680  0.32508487  0.79398141    -0.46100
C2675       C  0.52393022  0.35676286  0.80326696    -0.05400
C2676       C  0.50209698  0.37498727  0.79634612    -0.22700
H2677       H  0.46285767  0.39022879  0.77034552     0.19100
H2678       H  0.99794823  0.27162932  0.76700895     0.17900
H2679       H  0.96093104  0.26198977  0.73559659     0.14200
H2680       H  0.50012973  0.40252905  0.80038310     0.14000
H2681       H  0.43880903  0.36758950  0.74013465     0.32200
H2682       H  0.03294314  0.30404911  0.79635913     0.34900
C2683       C  0.64638514  0.03224449  0.75339101     0.20500
C2684       C  0.62847024  0.03269597  0.76779865    -0.39300
C2685       C  0.64561480  0.46577934  0.77212078     0.19500
C2686       C  0.68458501  0.49779858  0.77851248     0.22200
C2687       C  0.71895832  0.52864214  0.76916799    -0.39800
C2688       C  0.66827238  0.01057619  0.75126970     0.21000
N2689       N  0.64945884  0.05540672  0.74063071    -0.33100
C2690       C  0.67417566  0.04919434  0.73042005    -0.10700
C2691       C  0.68545836  0.02034699  0.73647258    -0.29500
N2692       N  0.68274732  0.49568074  0.79416313    -0.46100
C2693       C  0.64190103  0.46272431  0.79763011    -0.05400
C2694       C  0.61801966  0.44344117  0.78417092    -0.22700
H2695       H  0.61181143  0.05008301  0.76951733     0.19100
H2696       H  0.74858149  0.55544214  0.77410654     0.17900
H2697       H  0.70762494  0.01211746  0.73149208     0.14200
H2698       H  0.58521696  0.41596887  0.78321090     0.14000
H2699       H  0.63892101  0.07740517  0.73949077     0.32200
H2700       H  0.70751645  0.51538110  0.80198413     0.34900
C2701       C  0.54281351  0.16209935  0.77486073     0.20500
C2702       C  0.01111741  0.17003507  0.76431090    -0.39300
C2703       C  0.00992496  0.15594459  0.74891191     0.19500
C2704       C  0.53913966  0.13613920  0.74440969     0.22200
C2705       C  0.56429837  0.12878675  0.75491689    -0.39800
C2706       C  0.56475356  0.14198216  0.77029934     0.21000
N2707       N  0.54859091  0.17153911  0.79015196    -0.33100
C2708       C  0.57359118  0.15637643  0.79539946    -0.10700
C2709       C  0.58406367  0.13751209  0.78335179    -0.29500
N2710       N  0.52898746  0.12117005  0.72972384    -0.46100
C2711       C  0.99157148  0.12915073  0.72499392    -0.05400
C2712       C  0.98286627  0.15069465  0.73666457    -0.22700
H2713       H  0.99200139  0.18354280  0.76799599     0.19100
H2714       H  0.58090337  0.11233044  0.75149956     0.17900
H2715       H  0.60385298  0.12318419  0.78396038     0.14200
H2716       H  0.95668582  0.15676188  0.73686397     0.14000
H2717       H  0.03015981  0.18802770  0.79666549     0.32200
H2718       H  0.53912434  0.10259105  0.72385257     0.34900
C2719       C  0.73043156  0.14532303  0.76024508     0.20500
C2720       C  0.72397217  0.12989543  0.77570298    -0.39300
C2721       C  0.70986190  0.14977455  0.78626641     0.19500
C2722       C  0.70434235  0.18372098  0.78184548     0.22200
C2723       C  0.70987589  0.19845370  0.76632779    -0.39800
C2724       C  0.72238703  0.17740507  0.75564375     0.21000
N2725       N  0.73742756  0.12723597  0.74776840    -0.33100
C2726       C  0.73084003  0.14539023  0.73496204    -0.10700
C2727       C  0.72293403  0.17814601  0.73949268    -0.29500
N2728       N  0.68756942  0.19476243  0.79362012    -0.46100
C2729       C  0.68089784  0.16690147  0.80553353    -0.05400
C2730       C  0.69443027  0.13822066  0.80136991    -0.22700
H2731       H  0.72674096  0.10223726  0.77899583     0.19100
H2732       H  0.70216799  0.22252160  0.76266023     0.17900
H2733       H  0.71376878  0.19632794  0.73203962     0.14200
H2734       H  0.69072355  0.11076605  0.80804932     0.14000
H2735       H  0.74316036  0.10155422  0.74802553     0.32200
H2736       H  0.67773717  0.21743699  0.79314566     0.34900
C2737       C  0.85243849  0.50948562  0.78276698     0.20500
C2738       C  0.84434126  0.01130882  0.76602904    -0.39300
C2739       C  0.87337718  0.02572236  0.75350801     0.19500
C2740       C  0.89796849  0.53558194  0.75535306     0.22200
C2741       C  0.91707628  0.52796462  0.76806868    -0.39800
C2742       C  0.89308625  0.51536710  0.78178503     0.21000
N2743       N  0.83368732  0.49005851  0.79638066    -0.33100
C2744       C  0.86273394  0.48345505  0.80396624    -0.10700
C2745       C  0.90071576  0.50054026  0.79535664    -0.29500
N2746       N  0.93525643  0.04469593  0.74138354    -0.46100
C2747       C  0.90807032  0.04689255  0.73117486    -0.05400
C2748       C  0.86858702  0.03414277  0.73821532    -0.22700
H2749       H  0.81131670  0.00313368  0.76468599     0.19100
H2750       H  0.94800450  0.53048957  0.76721036     0.17900
H2751       H  0.92863867  0.49824481  0.79777715     0.14200
H2752       H  0.84082569  0.03281129  0.73299387     0.14000
H2753       H  0.80436986  0.97200619  0.79461810     0.32200
H2754       H  0.94319836  0.55041272  0.73721592     0.34900
C2755       C  0.83922506  0.35649308  0.77360243     0.20500
C2756       C  0.84455255  0.36725337  0.75775879    -0.39300
C2757       C  0.84313722  0.33569485  0.74772473     0.19500
C2758       C  0.83760279  0.29653339  0.75310493     0.22200
C2759       C  0.83116942  0.28525133  0.76901726    -0.39800
C2760       C  0.83199979  0.31677075  0.77908016     0.21000
N2761       N  0.84252040  0.38255344  0.78539902    -0.33100
C2762       C  0.83689644  0.35951631  0.79860678    -0.10700
C2763       C  0.82970593  0.31790740  0.79517822    -0.29500
N2764       N  0.84574852  0.27620532  0.74164859    -0.46100
C2765       C  0.85670833  0.30272707  0.72896345    -0.05400
C2766       C  0.85405167  0.33941867  0.73222124    -0.22700
H2767       H  0.85163630  0.39900437  0.75363182     0.19100
H2768       H  0.82798773  0.25521692  0.77331952     0.17900
H2769       H  0.82492987  0.29266368  0.80333550     0.14200
H2770       H  0.86498772  0.36805522  0.72491856     0.14000
H2771       H  0.84817391  0.41423539  0.78445882     0.32200
H2772       H  0.84803619  0.24840523  0.74280532     0.34900
C2773       C  0.52060762  0.11568178  0.31295335     0.20500
C2774       C  0.52098457  0.09901180  0.29828849    -0.39300
C2775       C  0.50613044  0.11322211  0.28599144     0.19500
C2776       C  0.99606047  0.14228889  0.28841205     0.22200
C2777       C  0.99650457  0.15898387  0.30329720    -0.39800
C2778       C  0.50741219  0.14520654  0.31515365     0.21000
N2779       N  0.53571999  0.10904224  0.32620762    -0.33100
C2780       C  0.53467602  0.13634479  0.33687457    -0.10700
C2781       C  0.51586166  0.15850161  0.33054666    -0.29500
N2782       N  0.97847681  0.14674208  0.27525644    -0.46100
C2783       C  0.98126672  0.12042924  0.26451156    -0.05400
C2784       C  0.49889459  0.09987808  0.27076884    -0.22700
H2785       H  0.53195745  0.07642606  0.29658593     0.19100
H2786       H  0.98553282  0.18145909  0.30526800     0.17900
H2787       H  0.01541729  0.18039937  0.33685329     0.14200
H2788       H  0.50459633  0.07578508  0.26562679     0.14000
H2789       H  0.54876021  0.08927082  0.32759605     0.32200
H2790       H  0.96146668  0.16275301  0.27421303     0.34900
C2791       C  0.90514321  0.49399768  0.31964201     0.20500
C2792       C  0.92113425  0.49230868  0.30502668    -0.39300
C2793       C  0.90826544  0.50808625  0.29258390     0.19500
C2794       C  0.88191096  0.52482241  0.29450744     0.22200
C2795       C  0.86626699  0.52707821  0.30916354    -0.39800
C2796       C  0.87876116  0.51085043  0.32165522     0.21000
N2797       N  0.90553650  0.47298181  0.33250457    -0.33100
C2798       C  0.87828230  0.47522376  0.34261650    -0.10700
C2799       C  0.86223006  0.50004628  0.33651954    -0.29500
N2800       N  0.83859894  0.00878421  0.27512615    -0.46100
C2801       C  0.86851205  0.00811120  0.26590979    -0.05400
C2802       C  0.88832213  0.98897917  0.27372482    -0.22700
H2803       H  0.94027213  0.47753613  0.30334200     0.19100
H2804       H  0.84415451  0.53844212  0.31060766     0.17900
H2805       H  0.83657999  0.50336878  0.34129934     0.15400
H2806       H  0.91459559  0.98554239  0.26975967     0.14000
H2807       H  0.91882231  0.45333596  0.33357117     0.32200
H2808       H  0.82070102  0.02332302  0.27279044     0.34900
C2809       C  0.96782631  0.34604109  0.29458245     0.20500
C2810       C  0.96359577  0.35523830  0.31010012    -0.39300
C2811       C  0.49084764  0.34846744  0.32023634     0.19500
C2812       C  0.51688515  0.33287324  0.31574258     0.22200
C2813       C  0.52033366  0.32354240  0.30008406    -0.39800
C2814       C  0.49677282  0.33229911  0.28925447     0.21000
N2815       N  0.95118227  0.35387736  0.28196747    -0.33100
C2816       C  0.96156590  0.33741197  0.26970790    -0.10700
C2817       C  0.49182913  0.32587995  0.27331548    -0.29500
N2818       N  0.54154992  0.33463333  0.32774355    -0.46100
C2819       C  0.53158182  0.35176856  0.33996956    -0.05400
C2820       C  0.49851780  0.35887291  0.33587468    -0.22700
H2821       H  0.94618686  0.37105842  0.31325496     0.19100
H2822       H  0.54093089  0.31164481  0.29654409     0.17900
H2823       H  0.50452173  0.31055244  0.26606045     0.14200
H2824       H  0.98449630  0.37702823  0.34289761     0.14000
H2825       H  0.93251927  0.36817539  0.28186774     0.32200
H2826       H  0.56734516  0.32963030  0.32713666     0.34900
C2827       C  0.83939445  0.32499905  0.29048913     0.20500
C2828       C  0.83776089  0.31504297  0.30640314    -0.39300
C2829       C  0.83075328  0.34129303  0.31663763     0.19500
C2830       C  0.82465070  0.37418100  0.31138135     0.22200
C2831       C  0.82743848  0.38496991  0.29548352    -0.39800
C2832       C  0.83571489  0.35951178  0.28526171     0.21000
N2833       N  0.84950154  0.30738215  0.27868318    -0.33100
C2834       C  0.85378930  0.33154490  0.26586597    -0.10700
C2835       C  0.84550746  0.36453107  0.26952148    -0.29500
N2836       N  0.82069735  0.39573723  0.32345065    -0.46100
C2837       C  0.82678929  0.37832834  0.33655928    -0.05400
C2838       C  0.83200814  0.34338221  0.33271092    -0.22700
H2839       H  0.84346886  0.28993359  0.31055541     0.19100
H2840       H  0.82542119  0.41254582  0.29146474     0.17900
H2841       H  0.84881941  0.39030912  0.26193941     0.14200
H2842       H  0.83887975  0.32413856  0.34056320     0.14000
H2843       H  0.85675719  0.28279242  0.27953780     0.32200
H2844       H  0.81500515  0.42135825  0.32267760     0.34900
C2845       C  0.64918563  0.97139716  0.28408568     0.20500
C2846       C  0.66846740  0.96045962  0.29612705    -0.39300
C2847       C  0.64499696  0.44687330  0.31021953     0.19500
C2848       C  0.60597251  0.44471458  0.31074847     0.22200
C2849       C  0.58665248  0.45002698  0.29754176    -0.39800
C2850       C  0.61374450  0.97487605  0.28686018     0.21000
N2851       N  0.66349434  0.98436442  0.26940977    -0.33100
C2852       C  0.63680401  0.99623866  0.26294293    -0.10700
C2853       C  0.60414756  0.98830987  0.27341850    -0.29500
N2854       N  0.59018952  0.43643704  0.32519643    -0.46100
C2855       C  0.61716568  0.42951696  0.33390192    -0.05400
C2856       C  0.65267025  0.43702145  0.32504383    -0.22700
H2857       H  0.69559532  0.95653695  0.29405327     0.19100
H2858       H  0.55608309  0.44836532  0.29808168     0.17900
H2859       H  0.57977365  0.99673341  0.27240054     0.14200
H2860       H  0.67928864  0.43372802  0.32873498     0.14000
H2861       H  0.69215162  0.98913012  0.26476645     0.32200
H2862       H  0.56239098  0.43545641  0.32885776     0.34900
C2863       C  0.65382837  0.14841808  0.28845068     0.20500
C2864       C  0.64380671  0.17404363  0.29774203    -0.39300
C2865       C  0.64250747  0.16665404  0.31380716     0.19500
C2866       C  0.65000110  0.13563772  0.32016917     0.22200
C2867       C  0.66068071  0.11046236  0.31088627    -0.39800
C2868       C  0.66239291  0.11818757  0.29483065     0.21000
N2869       N  0.65372659  0.14671209  0.27282141    -0.33100
C2870       C  0.66233833  0.11521265  0.26928844    -0.10700
C2871       C  0.66843511  0.09706996  0.28266919    -0.29500
N2872       N  0.63985759  0.12981055  0.33537310    -0.46100
C2873       C  0.62501272  0.15665104  0.33861738    -0.05400
C2874       C  0.62785298  0.18140167  0.32558565    -0.22700
H2875       H  0.63538383  0.19641246  0.29278424     0.19100
H2876       H  0.66503339  0.08506406  0.31571872     0.17900
H2877       H  0.67540267  0.07122795  0.28341340     0.14200
H2878       H  0.61585612  0.20329841  0.32444473     0.14000
H2879       H  0.64689268  0.16475437  0.26505843     0.32200
H2880       H  0.63886804  0.10590018  0.34265970     0.34900
C2881       C  0.85127935  0.47037708  0.45108561     0.20500
C2882       C  0.85870917  0.44376499  0.44118890    -0.39300
C2883       C  0.86178794  0.45379645  0.42524386     0.19500
C2884       C  0.85664857  0.48694503  0.41953624     0.22200
C2885       C  0.85070027  0.51448222  0.42946561    -0.39800
C2886       C  0.84875798  0.50522733  0.44542287     0.21000
N2887       N  0.84087897  0.46378111  0.46629948    -0.33100
C2888       C  0.83274729  0.49534669  0.47041701    -0.10700
C2889       C  0.83780382  0.52202101  0.45771730    -0.29500
N2890       N  0.85339135  0.48488745  0.40391196    -0.46100
C2891       C  0.85605369  0.44988686  0.39956393    -0.05400
C2892       C  0.86358336  0.43124378  0.41258294    -0.22700
H2893       H  0.84044867  0.90706139  0.44033263     0.19100
H2894       H  0.84534380  0.53959338  0.42504064     0.17900
H2895       H  0.82962796  0.54706662  0.45717822     0.14200
H2896       H  0.86676396  0.40287004  0.41291553     0.14000
H2897       H  0.82768648  0.93286073  0.46922426     0.32200
H2898       H  0.84632509  0.50395039  0.39676786     0.34900
C2899       C  0.70259508  0.44156661  0.43945402     0.20500
C2900       C  0.68697433  0.40977903  0.42759256    -0.39300
C2901       C  0.68195533  0.42371701  0.41287476     0.19500
C2902       C  0.69210146  0.46629476  0.41010112     0.22200
C2903       C  0.70761640  0.49803590  0.42203015    -0.39800
C2904       C  0.71226795  0.48393033  0.43678825     0.21000
N2905       N  0.70960201  0.43628103  0.45445104    -0.33100
C2906       C  0.72393550  0.47558448  0.46153121    -0.10700
C2907       C  0.72569231  0.50604600  0.45081130    -0.29500
N2908       N  0.67799010  0.46933679  0.39590267    -0.46100
C2909       C  0.65718608  0.42808543  0.38982352    -0.05400
C2910       C  0.66044496  0.39918100  0.39989306    -0.22700
H2911       H  0.67759256  0.37607337  0.42982184     0.19100
H2912       H  0.70753710  0.02828505  0.42324877     0.17900
H2913       H  0.72859388  0.03631175  0.45613344     0.14200
H2914       H  0.64372309  0.36374143  0.39883782     0.14000
H2915       H  0.70541682  0.40765689  0.45943961     0.32200
H2916       H  0.67717875  0.49621348  0.39157930     0.34900
C2917       C  0.64294672  0.19486874  0.41904058     0.20500
C2918       C  0.65185185  0.22050226  0.43238627    -0.39300
C2919       C  0.65963757  0.20395781  0.44589332     0.19500
C2920       C  0.66002740  0.16555941  0.44616120     0.22200
C2921       C  0.64983635  0.13902502  0.43278108    -0.39800
C2922       C  0.64071764  0.15501980  0.41922657     0.21000
N2923       N  0.63302003  0.20310303  0.40496776    -0.33100
C2924       C  0.62207686  0.16737882  0.39615670    -0.10700
C2925       C  0.62726013  0.13686575  0.40453441    -0.29500
N2926       N  0.67388603  0.16045394  0.46014465    -0.46100
C2927       C  0.68225532  0.19600820  0.46880815    -0.05400
C2928       C  0.67216867  0.22281619  0.46025977    -0.22700
H2929       H  0.65295396  0.25136938  0.43224013     0.19100
H2930       H  0.64934093  0.10848997  0.43287957     0.17900
H2931       H  0.61950252  0.10466352  0.40072092     0.14200
H2932       H  0.67680566  0.25427840  0.46334619     0.14000
H2933       H  0.63227440  0.23083650  0.40173011     0.32200
H2934       H  0.68022997  0.13606207  0.46311391     0.34900
C2935       C  0.77380905  0.33692366  0.41684999     0.20500
C2936       C  0.76323201  0.34199970  0.43204595    -0.39300
C2937       C  0.77547401  0.32355367  0.44378374     0.19500
C2938       C  0.79580171  0.30086599  0.44065960     0.22200
C2939       C  0.80590640  0.29520053  0.42545506    -0.39800
C2940       C  0.79458888  0.31453949  0.41368321     0.21000
N2941       N  0.77440002  0.35966099  0.40433909    -0.33100
C2942       C  0.79737810  0.35343827  0.39337231    -0.10700
C2943       C  0.80878684  0.32387020  0.39851058    -0.29500
N2944       N  0.80351871  0.28605832  0.45387089    -0.46100
C2945       C  0.78759055  0.29908572  0.46551245    -0.05400
C2946       C  0.77048062  0.32319055  0.45962219    -0.22700
H2947       H  0.74885018  0.36120051  0.43461765     0.19100
H2948       H  0.82355785  0.27916318  0.42305638     0.17900
H2949       H  0.83083868  0.31645001  0.39290852     0.14200
H2950       H  0.75396082  0.33622275  0.46595246     0.14000
H2951       H  0.76533626  0.38296710  0.40405176     0.32200
H2952       H  0.81590734  0.26558830  0.45475004     0.34900
C2953       C  0.51427962  0.32023122  0.44548982     0.20500
C2954       C  0.50285893  0.30616924  0.43002515    -0.39300
C2955       C  0.52855837  0.33676242  0.41858609     0.19500
C2956       C  0.56183099  0.37870922  0.42231850     0.22200
C2957       C  0.57459358  0.39219514  0.43777833    -0.39800
C2958       C  0.54995637  0.36092190  0.44923831     0.21000
N2959       N  0.49760908  0.29554280  0.45828616    -0.33100
C2960       C  0.52379793  0.31956311  0.47023481    -0.10700
C2961       C  0.55693318  0.36073127  0.46507279    -0.29500
N2962       N  0.58126408  0.40146487  0.40938560    -0.46100
C2963       C  0.56282848  0.37302735  0.39728446    -0.05400
C2964       C  0.52883687  0.33244068  0.40261979    -0.22700
H2965       H  0.97726584  0.26944947  0.42613676     0.19100
H2966       H  0.60284376  0.42388127  0.44060778     0.17900
H2967       H  0.58419165  0.38560596  0.47172116     0.14200
H2968       H  0.50846121  0.30304409  0.39586706     0.14000
H2969       H  0.97188040  0.25697932  0.45751364     0.32200
H2970       H  0.60539591  0.43464545  0.40900922     0.34900
C2971       C  0.52318475  0.15867829  0.41802454     0.20500
C2972       C  0.51085390  0.14363046  0.43335822    -0.39300
C2973       C  0.51875096  0.17599497  0.44438658     0.19500
C2974       C  0.53937016  0.22006790  0.44049876     0.22200
C2975       C  0.55060683  0.23495037  0.42515293    -0.39800
C2976       C  0.54082062  0.20239930  0.41403767     0.21000
N2977       N  0.52340661  0.13559465  0.40573627    -0.33100
C2978       C  0.54066440  0.16472903  0.39383257    -0.10700
C2979       C  0.55076363  0.20644321  0.39846764    -0.29500
N2980       N  0.54452712  0.24446832  0.45305844    -0.46100
C2981       C  0.52481718  0.21577564  0.46493627    -0.05400
C2982       C  0.50864448  0.17260760  0.46001998    -0.22700
H2983       H  0.49651755  0.10937512  0.43648126     0.19100
H2984       H  0.56620333  0.26942583  0.42211843     0.17900
H2985       H  0.56842388  0.23671521  0.39189036     0.14200
H2986       H  0.49087309  0.14281464  0.46683181     0.14000
H2987       H  0.51582390  0.10305856  0.40576726     0.32200
H2988       H  0.55926866  0.27858827  0.45331662     0.34900
C2989       C  0.91297484  0.12816185  0.10721831     0.20500
C2990       C  0.89821444  0.14527065  0.09580553    -0.39300
C2991       C  0.91200845  0.14531409  0.08058222     0.19500
C2992       C  0.93801361  0.12887377  0.07698082     0.22200
C2993       C  0.45259157  0.11291572  0.08815225    -0.39800
C2994       C  0.93905591  0.11196767  0.10365380     0.21000
N2995       N  0.90618916  0.12645961  0.12260655    -0.33100
C2996       C  0.92812325  0.10903371  0.12896739    -0.10700
C2997       C  0.94913052  0.09968529  0.11743389    -0.29500
N2998       N  0.45144328  0.13938013  0.06197531    -0.46100
C2999       C  0.93916949  0.16600573  0.05704621    -0.05400
C3000       C  0.91162445  0.16826854  0.06777238    -0.22700
H3001       H  0.87966120  0.16003357  0.09871299     0.19100
H3002       H  0.47604104  0.10384360  0.08563825     0.17900
H3003       H  0.46993981  0.08829756  0.11863924     0.14200
H3004       H  0.89898461  0.18972230  0.06725290     0.14000
H3005       H  0.88729095  0.13619815  0.12833326     0.32200
H3006       H  0.47651264  0.13725715  0.05704473     0.34900
C3007       C  0.87125872  0.30819229  0.10515314     0.20500
C3008       C  0.87172859  0.32511266  0.09034348    -0.39300
C3009       C  0.85173570  0.29390080  0.07839454     0.19500
C3010       C  0.83290325  0.24924557  0.08106299     0.22200
C3011       C  0.83270303  0.23241655  0.09583091    -0.39800
C3012       C  0.85257855  0.26360832  0.10772721     0.21000
N3013       N  0.88809099  0.33091766  0.11841050    -0.33100
C3014       C  0.88058797  0.30060395  0.12949178    -0.10700
C3015       C  0.85815697  0.25820750  0.12322559    -0.29500
N3016       N  0.81010500  0.22600072  0.06860251    -0.46100
C3017       C  0.81307268  0.25575295  0.05806745    -0.05400
C3018       C  0.84020726  0.29862566  0.06352133    -0.22700
H3019       H  0.88517926  0.35987187  0.08839531     0.19100
H3020       H  0.81680029  0.19742917  0.09801219     0.17900
H3021       H  0.84860761  0.22756327  0.12904962     0.14200
H3022       H  0.84524112  0.32855770  0.05832502     0.14000
H3023       H  0.90576387  0.36510790  0.11960615     0.32200
H3024       H  0.78948820  0.19183088  0.06803876     0.34900
C3025       C  0.99926813  0.28458924  0.11595461     0.20500
C3026       C  0.50077200  0.26007892  0.10339790    -0.39300
C3027       C  0.00425072  0.26545362  0.08976315     0.19500
C3028       C  0.99797225  0.29811335  0.08434111     0.22200
C3029       C  0.99372035  0.32629901  0.09451048    -0.39800
C3030       C  0.99538469  0.31873693  0.11045205     0.21000
N3031       N  0.99332554  0.28043447  0.13151031    -0.33100
C3032       C  0.98680114  0.31296180  0.13596217    -0.10700
C3033       C  0.98830720  0.33762248  0.12310744    -0.29500
N3034       N  0.99359995  0.29609224  0.06874976    -0.46100
C3035       C  0.99689061  0.26172641  0.06407461    -0.05400
C3036       C  0.49897072  0.24322707  0.07474774    -0.22700
H3037       H  0.50595437  0.23477654  0.10774834     0.19100
H3038       H  0.98779816  0.35123531  0.09032644     0.17900
H3039       H  0.98057094  0.36300157  0.12287174     0.14200
H3040       H  0.50575504  0.21722365  0.07498454     0.14000
H3041       H  0.49227332  0.26208762  0.13626030     0.32200
H3042       H  0.98624469  0.31529231  0.06180816     0.34900
C3043       C  0.66479635  0.15536294  0.11283647     0.20500
C3044       C  0.65441551  0.14138154  0.09732863    -0.39300
C3045       C  0.68142839  0.17167732  0.08604114     0.19500
C3046       C  0.71521245  0.21327866  0.08990615     0.22200
C3047       C  0.72659280  0.22679088  0.10542955    -0.39800
C3048       C  0.70052465  0.19584768  0.11676374     0.21000
N3049       N  0.64795065  0.13016550  0.12551962    -0.33100
C3050       C  0.67415178  0.15364756  0.13754927    -0.10700
C3051       C  0.70717687  0.19506731  0.13258275    -0.29500
N3052       N  0.73682913  0.23529487  0.07711538    -0.46100
C3053       C  0.71859160  0.20676523  0.06503813    -0.05400
C3054       C  0.68316591  0.16688729  0.07018086    -0.22700
H3055       H  0.62874323  0.10835277  0.09433202     0.19100
H3056       H  0.75524674  0.25798179  0.10842816     0.17900
H3057       H  0.73479577  0.21929220  0.13925364     0.14200
H3058       H  0.66281710  0.13754185  0.06339752     0.14000
H3059       H  0.62351561  0.09705803  0.12566305     0.32200
H3060       H  0.76267802  0.26781591  0.07679457     0.34900
C3061       C  0.81967317  0.98936887  0.11331323     0.20500
C3062       C  0.82361220  0.97686008  0.09811658    -0.39300
C3063       C  0.81267218  0.99576548  0.08592770     0.19500
C3064       C  0.80185166  0.02677770  0.08881920     0.22200
C3065       C  0.79600158  0.03752667  0.10381806    -0.39800
C3066       C  0.80393885  0.01654624  0.11586810     0.21000
N3067       N  0.83464371  0.98269412  0.12675664    -0.33100
C3068       C  0.82819806  0.00591819  0.13783830    -0.10700
C3069       C  0.80633358  0.02474012  0.13145220    -0.29500
N3070       N  0.79532455  0.04199932  0.07559568    -0.46100
C3071       C  0.79717990  0.01752130  0.06400909    -0.05400
C3072       C  0.80965796  0.98923192  0.06994027    -0.22700
H3073       H  0.83504633  0.95486014  0.09594776     0.19100
H3074       H  0.78668398  0.06127260  0.10595850     0.17900
H3075       H  0.79944216  0.04763671  0.13690041     0.14200
H3076       H  0.81626976  0.46847257  0.06357633     0.14000
H3077       H  0.85344989  0.96862020  0.12781168     0.32200
H3078       H  0.79002382  0.06779461  0.07469189     0.34900
C3079       C  0.69024660  0.00714105  0.08156400     0.20500
C3080       C  0.67408381  0.98854492  0.09633725    -0.39300
C3081       C  0.67727049  0.01789348  0.10794457     0.19500
C3082       C  0.69702391  0.06248121  0.10512381     0.22200
C3083       C  0.71172710  0.08076229  0.09031212    -0.39800
C3084       C  0.70658884  0.05121834  0.07856380     0.21000
N3085       N  0.69713671  0.98813056  0.06930837    -0.33100
C3086       C  0.71754862  0.02021586  0.05841346    -0.10700
C3087       C  0.72231795  0.05955447  0.06355925    -0.29500
N3088       N  0.69923673  0.08402631  0.11817339    -0.46100
C3089       C  0.67859456  0.05305594  0.12934972    -0.05400
C3090       C  0.66451727  0.01115429  0.12342209    -0.22700
H3091       H  0.66120071  0.95409058  0.09872993     0.19100
H3092       H  0.72723842  0.11574668  0.08819360     0.17900
H3093       H  0.74103422  0.09148404  0.05806176     0.14200
H3094       H  0.64736348  0.98013212  0.12957427     0.14000
H3095       H  0.69204536  0.95653040  0.06893493     0.32200
H3096       H  0.71349799  0.11795532  0.11925574     0.34900
C3097       C  0.63165287  0.18081698  0.96191503     0.20500
C3098       C  0.62761525  0.19105079  0.97729520    -0.39300
C3099       C  0.64935806  0.18129384  0.98849752     0.19500
C3100       C  0.67419178  0.16378397  0.98453648     0.22200
C3101       C  0.67731049  0.15254310  0.96917932    -0.39800
C3102       C  0.65468746  0.16134127  0.95804939     0.21000
N3103       N  0.61405576  0.18692346  0.94922077    -0.33100
C3104       C  0.62451462  0.16972649  0.93722446    -0.10700
C3105       C  0.65020964  0.15373650  0.94224836    -0.29500
N3106       N  0.69873195  0.16621987  0.99660527    -0.46100
C3107       C  0.68998571  0.18593764  0.00822745    -0.05400
C3108       C  0.65776567  0.19389321  0.00387007    -0.22700
H3109       H  0.61011894  0.20692434  0.98024302     0.19100
H3110       H  0.69715981  0.13940315  0.96605976     0.17900
H3111       H  0.66275970  0.13757621  0.93537300     0.14200
H3112       H  0.64781074  0.21337282  0.01011782     0.14000
H3113       H  0.59430549  0.20002326  0.94893119     0.32200
H3114       H  0.72375316  0.15998663  0.99634670     0.34900
C3115       C  0.49318242  0.14608108  0.95375392     0.20500
C3116       C  0.48874899  0.13384736  0.96949747    -0.39300
C3117       C  0.47463298  0.15482274  0.97948240     0.19500
C3118       C  0.46467581  0.18493237  0.97410904     0.22200
C3119       C  0.46976839  0.19772271  0.95837910    -0.39800
C3120       C  0.48490998  0.17750972  0.94844020     0.21000
N3121       N  0.51039713  0.13431055  0.94239560    -0.33100
C3122       C  0.51422150  0.15904181  0.92982684    -0.10700
C3123       C  0.49862297  0.18645319  0.93311540    -0.29500
N3124       N  0.96657007  0.21456582  0.98737565    -0.46100
C3125       C  0.46263518  0.18657474  0.99926892    -0.05400
C3126       C  0.47306629  0.15519512  0.99554461    -0.22700
H3127       H  0.49801984  0.11149133  0.97379674     0.19100
H3128       H  0.97896143  0.23753167  0.95588730     0.17900
H3129       H  0.49964846  0.21137300  0.92565097     0.14200
H3130       H  0.48243052  0.13819028  0.00351111     0.14000
H3131       H  0.52189434  0.11308917  0.94344581     0.32200
H3132       H  0.96209519  0.24102600  0.98678495     0.34900
C3133       C  0.81108888  0.28423685  0.97976888     0.20500
C3134       C  0.84094905  0.29824056  0.96736325    -0.39300
C3135       C  0.82805565  0.30882556  0.95333086     0.19500
C3136       C  0.78799017  0.30415130  0.95178844     0.22200
C3137       C  0.75916680  0.29183574  0.96423522    -0.39800
C3138       C  0.77262110  0.28287894  0.97822382     0.21000
N3139       N  0.81456729  0.27156540  0.99426690    -0.33100
C3140       C  0.77790095  0.26228561  0.00189022    -0.10700
C3141       C  0.75234262  0.27117511  0.99233645    -0.29500
N3142       N  0.78412102  0.31897797  0.93795870    -0.46100
C3143       C  0.82282213  0.33613170  0.93071066    -0.05400
C3144       C  0.85082548  0.32918649  0.93981022    -0.22700
H3145       H  0.87225017  0.30181852  0.96866189     0.19100
H3146       H  0.72880084  0.29046509  0.96320742     0.17900
H3147       H  0.72255088  0.26926667  0.99522324     0.14200
H3148       H  0.88476215  0.34201996  0.93771944     0.14000
H3149       H  0.83956725  0.26818433  0.99853554     0.32200
H3150       H  0.75756408  0.32062604  0.93440050     0.34900
C3151       C  0.83524493  0.48256748  0.98836253     0.20500
C3152       C  0.83195254  0.44895184  0.97894774    -0.39300
C3153       C  0.84185397  0.45930907  0.96319499     0.19500
C3154       C  0.85474203  0.50023833  0.95710760     0.22200
C3155       C  0.85719564  0.53382929  0.96649186    -0.39800
C3156       C  0.84661794  0.52321995  0.98233053     0.21000
N3157       N  0.82187756  0.47854340  0.00318006    -0.33100
C3158       C  0.82283593  0.51603577  0.00657294    -0.10700
C3159       C  0.83908513  0.54517913  0.99393754    -0.29500
N3160       N  0.86103956  0.50080259  0.94158588    -0.46100
C3161       C  0.85115146  0.45955169  0.93786081    -0.05400
C3162       C  0.83910594  0.43305675  0.95106298    -0.22700
H3163       H  0.82063359  0.41634139  0.98344082     0.19100
H3164       H  0.86492566  0.56517182  0.96170754     0.17900
H3165       H  0.84017250  0.57589847  0.99277134     0.14200
H3166       H  0.82932561  0.39892274  0.95176273     0.14000
H3167       H  0.80766583  0.44987140  0.00987422     0.32200
H3168       H  0.87005713  0.52699087  0.93395854     0.34900
C3169       C  0.55538476  0.33190333  0.95653890     0.20500
C3170       C  0.56492052  0.31147640  0.96839861    -0.39300
C3171       C  0.54383455  0.30634934  0.98253483     0.19500
C3172       C  0.51504315  0.32014643  0.98469934     0.22200
C3173       C  0.50547602  0.34063489  0.97278017    -0.39800
C3174       C  0.52689580  0.34602693  0.95863038     0.21000
N3175       N  0.57235167  0.34168402  0.94222139    -0.33100
C3176       C  0.55514730  0.36287057  0.93509921    -0.10700
C3177       C  0.52610182  0.36566248  0.94494373    -0.29500
N3178       N  0.49528262  0.30643627  0.99855194    -0.46100
C3179       C  0.51100832  0.28302088  0.00501565    -0.05400
C3180       C  0.54222526  0.28331674  0.99556350    -0.22700
H3181       H  0.58652814  0.29960950  0.96664404     0.19100
H3182       H  0.48245995  0.35081747  0.97431096     0.17900
H3183       H  0.50879527  0.38219553  0.94278517     0.14200
H3184       H  0.55763928  0.26465349  0.99718357     0.14000
H3185       H  0.59528229  0.33533246  0.93785536     0.32200
H3186       H  0.46952562  0.30880209  0.00261019     0.34900
C3187       C  0.69435448  0.50546774  0.95099277     0.20500
C3188       C  0.69924700  0.52900292  0.96477088    -0.39300
C3189       C  0.71594705  0.51829818  0.97764785     0.19500
C3190       C  0.72575740  0.48587492  0.97683201     0.22200
C3191       C  0.72176256  0.46313188  0.96308292    -0.39800
C3192       C  0.70609133  0.47448228  0.95021093     0.21000
N3193       N  0.67423549  0.50520750  0.93778413    -0.33100
C3194       C  0.67276884  0.47345449  0.92863241    -0.10700
C3195       C  0.69373235  0.45476117  0.93589803    -0.29500
N3196       N  0.73915916  0.48022984  0.99063600    -0.46100
C3197       C  0.74043021  0.51081598  0.00029933    -0.05400
C3198       C  0.72511777  0.53465091  0.99269997    -0.22700
H3199       H  0.68973139  0.55298799  0.96551648     0.19100
H3200       H  0.72922367  0.43755717  0.96256498     0.17900
H3201       H  0.69572985  0.42710039  0.93203318     0.14200
H3202       H  0.72233517  0.56112825  0.99739535     0.14000
H3203       H  0.65840641  0.52213226  0.93587936     0.32200
H3204       H  0.74659923  0.45647520  0.99328201     0.34900
C3205       C  0.57178478  0.93393039  0.90049213     0.86700
C3206       C  0.54249475  0.89645489  0.91172204    -0.53500
C3207       C  0.56287536  0.87810590  0.91902060     0.09600
C3208       C  0.61005852  0.89766161  0.91359709     0.20600
C3209       C  0.61112958  0.96624523  0.91043578    -0.54300
C3210       C  0.63100296  0.94700999  0.91753304     0.09700
C3211       C  0.58961504  0.91471268  0.88925427    -0.53800
C3212       C  0.60923808  0.89529941  0.89574459     0.10300
H3213       H  0.51023919  0.88860160  0.91478427     0.14800
H3214       H  0.62594811  0.88145294  0.91878935     0.00600
H3215       H  0.62047063  0.00010762  0.91241753     0.15100
H3216       H  0.58966580  0.91988905  0.87705270     0.14900
C3217       C  0.87873329  0.93030437  0.89958732     0.86700
C3218       C  0.88013998  0.96120261  0.91242145    -0.53500
C3219       C  0.84268214  0.94336125  0.92099405     0.09600
C3220       C  0.80697804  0.89675396  0.91546378     0.20600
C3221       C  0.86640092  0.88731275  0.90847055    -0.54300
C3222       C  0.82918897  0.87018720  0.91712631     0.09700
C3223       C  0.83901373  0.91935118  0.89002460    -0.53800
C3224       C  0.80122122  0.90047231  0.89782608     0.10300
H3225       H  0.90939219  0.99197985  0.91548516     0.14800
H3226       H  0.77638929  0.88381481  0.92196138     0.00600
H3227       H  0.88715254  0.87396399  0.90890966     0.15100
H3228       H  0.84068981  0.92659605  0.87786258     0.14900
C3229       C  0.56457399  0.62193424  0.89957323     0.86700
C3230       C  0.59600672  0.62873896  0.91283082    -0.53500
C3231       C  0.60898248  0.66620702  0.92142605     0.09600
C3232       C  0.59028526  0.69390054  0.91539970     0.20600
C3233       C  0.52773290  0.62358115  0.90768287    -0.54300
C3234       C  0.54108225  0.66071290  0.91628623     0.09700
C3235       C  0.58857508  0.66360929  0.89013955    -0.53800
C3236       C  0.60154444  0.70135316  0.89781836     0.10300
H3237       H  0.60383095  0.60429009  0.91597349     0.14800
H3238       H  0.60124590  0.72476783  0.92197086     0.00600
H3239       H  0.49508975  0.59502728  0.90851876     0.15100
H3240       H  0.59591903  0.66330017  0.87816666     0.14900
Fe3241     Fe  0.70504175  0.80196585  0.86785061     1.65800
Fe3242     Fe  0.60932582  0.79692205  0.86441063     1.73200
Fe3243     Fe  0.70452028  0.89573076  0.86452483     1.54400
O3244       O  0.75347680  0.90465541  0.87992486    -0.81500
O3245       O  0.60676249  0.82865017  0.84447006    -0.79800
O3246       O  0.73759253  0.83835196  0.88758353    -0.84000
O3247       O  0.75456032  0.84551542  0.85330378    -0.78800
O3248       O  0.66946506  0.89870769  0.88325940    -0.80600
O3249       O  0.60877013  0.75012050  0.84971624    -0.83300
C3250       C  0.76254274  0.87758837  0.84453565     0.97400
C3251       C  0.76038893  0.88001183  0.88859672     1.04900
O3252       O  0.67275377  0.83147711  0.86560418    -1.12300
O3253       O  0.60315073  0.76047999  0.88437755    -0.74800
O3254       O  0.65996978  0.75309110  0.88249369    -0.78200
O3255       O  0.74158487  0.89702262  0.84561707    -0.78900
C3256       C  0.62386017  0.74249800  0.88849983     0.96300
O3257       O  0.67602879  0.76385479  0.84818931    -0.76900
O3258       O  0.60311006  0.84055784  0.87866110    -0.82100
C3259       C  0.62630194  0.86965918  0.84182680     0.98900
C3260       C  0.62875716  0.87649983  0.88571275     1.04900
O3261       O  0.66082121  0.89702920  0.84905616    -0.77700
C3262       C  0.63693593  0.74361995  0.84362692     1.03200
C3263       C  0.75184819  0.01501510  0.01731535     0.02500
C3264       C  0.79064143  0.01546996  0.01976654     0.02500
C3265       C  0.80426937  0.01524000  0.03506935    -0.18100
C3266       C  0.78564383  0.52079492  0.04750445     0.02500
C3267       C  0.74875251  0.52364605  0.04425458     0.02500
C3268       C  0.72927740  0.01758529  0.03007558    -0.18100
H3269       H  0.69965171  0.01727978  0.02813473     0.04500
H3270       H  0.83346259  0.01470175  0.03694854     0.04500
C3271       C  0.63528059  0.56199621  0.16708114     0.86700
C3272       C  0.64593729  0.60697526  0.16055646    -0.53500
C3273       C  0.68372341  0.62962124  0.15243619     0.09600
C3274       C  0.70942207  0.60649707  0.15267384     0.20600
C3275       C  0.63856374  0.53781633  0.15267621    -0.54300
C3276       C  0.67769395  0.56164888  0.14495682     0.09700
C3277       C  0.67411844  0.57157261  0.17689533    -0.53800
C3278       C  0.71294499  0.59560340  0.16981137     0.10300
H3279       H  0.62156973  0.61571780  0.15962493     0.14800
H3280       H  0.74138177  0.62590166  0.14687578     0.00600
H3281       H  0.61158373  0.50700079  0.14832591     0.15100
H3282       H  0.67106335  0.55930274  0.18855590     0.14900
C3283       C  0.94554556  0.86197911  0.16595281     0.86700
C3284       C  0.97891959  0.85941723  0.15569179    -0.53500
C3285       C  0.96274498  0.81947178  0.14839241     0.09600
C3286       C  0.91507919  0.78574131  0.15252710     0.20600
C3287       C  0.90752927  0.84945034  0.15473811    -0.54300
C3288       C  0.89232257  0.80989197  0.14726683     0.09700
C3289       C  0.92942929  0.82368002  0.17701416    -0.53800
C3290       C  0.91237571  0.78384163  0.17041192     0.10300
H3291       H  0.00998858  0.88821706  0.15269196     0.14800
H3292       H  0.90244518  0.75297782  0.14714726     0.00600
H3293       H  0.89743520  0.87218350  0.15166256     0.15100
H3294       H  0.93248454  0.82815261  0.18932539     0.14900
C3295       C  0.93548445  0.55086597  0.16609568     0.86700
C3296       C  0.89254976  0.51726528  0.15775932    -0.53500
C3297       C  0.87161823  0.53602198  0.15110297     0.09600
C3298       C  0.89447847  0.58570531  0.15423267     0.20600
C3299       C  0.96147099  0.58526590  0.15345654    -0.54300
C3300       C  0.93942355  0.60294875  0.14681527     0.09700
C3301       C  0.92382334  0.57516418  0.17767415    -0.53800
C3302       C  0.90103712  0.59191860  0.17184847     0.10300
H3303       H  0.88302160  0.48342700  0.15555350     0.14800
H3304       H  0.87739709  0.60156924  0.14988983     0.00600
H3305       H  0.99186811  0.59086642  0.14900430     0.15100
H3306       H  0.93430219  0.57968115  0.18954953     0.14900
Fe3307     Fe  0.80786873  0.68675549  0.20095826     1.65800
Fe3308     Fe  0.90177057  0.68916962  0.20407396     1.73200
Fe3309     Fe  0.80620542  0.59193185  0.20264495     1.54400
O3310       O  0.76903115  0.58881448  0.22163773    -0.81500
O3311       O  0.90803436  0.64423134  0.19048080    -0.79800
O3312       O  0.75628170  0.64104559  0.21464507    -0.84000
O3313       O  0.77734886  0.65428646  0.18062151    -0.78800
O3314       O  0.84964330  0.58836675  0.21779266    -0.80600
O3315       O  0.90827144  0.72375925  0.18381686    -0.83300
C3316       C  0.75284273  0.61299983  0.17926509     0.97400
C3317       C  0.74748496  0.60756603  0.22282968     1.04900
O3318       O  0.83868845  0.65593749  0.20266201    -1.12300
O3319       O  0.90353378  0.73884719  0.21784106    -0.74800
O3320       O  0.83555552  0.72144695  0.22109847    -0.78200
O3321       O  0.75795344  0.58640662  0.18754984    -0.78900
C3322       C  0.87546508  0.74497178  0.22430691     0.96300
O3323       O  0.85548879  0.73702070  0.18724981    -0.76900
O3324       O  0.90120502  0.65667479  0.22415496    -0.82100
C3325       C  0.88230121  0.61085115  0.18224427     0.98900
C3326       C  0.88358470  0.61526182  0.22547263     1.04900
O3327       O  0.84130785  0.59120635  0.18355531    -0.77700
C3328       C  0.88991762  0.74463397  0.18051279     1.03200
C3329       C  0.46481745  0.69940372  0.01518933     0.02500
C3330       C  0.48681378  0.74564815  0.01759559     0.02500
C3331       C  0.49035999  0.76232083  0.03267887    -0.18100
C3332       C  0.99072286  0.74141808  0.04687533     0.02500
C3333       C  0.96846101  0.69528424  0.04424351     0.02500
C3334       C  0.44872319  0.67126947  0.02817658    -0.18100
H3335       H  0.43218335  0.63597319  0.02649499     0.04500
H3336       H  0.50743152  0.79763197  0.03439122     0.04500
C3337       C  0.76971353  0.75040568  0.01816559     0.02500
C3338       C  0.72636834  0.71641681  0.02131514     0.02500
C3339       C  0.71219537  0.70523647  0.03674116    -0.18100
C3340       C  0.74101514  0.72451720  0.04931151     0.02500
C3341       C  0.78581377  0.75353012  0.04606192     0.02500
C3342       C  0.79946197  0.76747449  0.03060828    -0.18100
H3343       H  0.83315817  0.79165421  0.02830108     0.04500
H3344       H  0.67838286  0.68119197  0.03891268     0.04500
C3345       C  0.96639902  0.73823320  0.49861157     0.86700
C3346       C  0.97747499  0.78216504  0.49113247    -0.53500
C3347       C  0.51522609  0.80209066  0.48367358     0.09600
C3348       C  0.54225535  0.78057225  0.48567217     0.20600
C3349       C  0.97139058  0.71246771  0.48509675    -0.54300
C3350       C  0.51315598  0.73506890  0.47792663     0.09700
C3351       C  0.50274457  0.74625500  0.50924561    -0.53800
C3352       C  0.54282789  0.77083026  0.50318111     0.10300
H3353       H  0.95286825  0.79016678  0.48914108     0.14800
H3354       H  0.57525249  0.80056972  0.48069425     0.00600
H3355       H  0.94485398  0.68127409  0.48079941     0.15100
H3356       H  0.99946460  0.73671153  0.52093385     0.14900
C3357       C  0.75773376  0.71926505  0.49901832     0.86700
C3358       C  0.71438337  0.68468394  0.49121187    -0.53500
C3359       C  0.69137964  0.70212493  0.48524093     0.09600
C3360       C  0.71258906  0.75151224  0.48894705     0.20600
C3361       C  0.78103764  0.75468981  0.48648016    -0.54300
C3362       C  0.75696914  0.77126270  0.48091467     0.09700
C3363       C  0.74595037  0.74153229  0.51136365    -0.53800
C3364       C  0.72111421  0.75693822  0.50646535     0.10300
H3365       H  0.70669461  0.65171535  0.48843234     0.14800
H3366       H  0.69425041  0.76677350  0.48531713     0.00600
H3367       H  0.81130613  0.76202192  0.48128268     0.15100
H3368       H  0.75858792  0.74629489  0.52293098     0.14900
C3369       C  0.78418404  0.53588345  0.49893738     0.86700
C3370       C  0.82189344  0.53284042  0.49218982    -0.53500
C3371       C  0.80076048  0.98753902  0.48278376     0.09600
C3372       C  0.75245964  0.95485629  0.48650950     0.20600
C3373       C  0.75383046  0.52552765  0.48493722    -0.54300
C3374       C  0.73156969  0.98034552  0.48061673     0.09700
C3375       C  0.76509681  0.99285119  0.51093357    -0.53800
C3376       C  0.74796434  0.95293844  0.50441457     0.10300
H3377       H  0.85410118  0.56170887  0.49071837     0.14800
H3378       H  0.73956144  0.92196592  0.48121580     0.00600
H3379       H  0.74566432  0.54870465  0.48051477     0.15100
H3380       H  0.75086820  0.49948980  0.52110678     0.14900
Fe3381     Fe  0.63969032  0.86135713  0.53484969     1.65800
Fe3382     Fe  0.63036486  0.76271644  0.53777797     1.73200
Fe3383     Fe  0.72925421  0.85621336  0.53932219     1.54400
O3384       O  0.74026581  0.89257023  0.51900195    -0.81500
O3385       O  0.67190842  0.75513032  0.55288567    -0.79800
O3386       O  0.68869726  0.90824285  0.52068386    -0.84000
O3387       O  0.66921659  0.89778455  0.55476250    -0.78800
O3388       O  0.73151323  0.80885293  0.52576623    -0.80600
O3389       O  0.59487622  0.76363712  0.55665837    -0.83300
C3390       C  0.70855746  0.91709226  0.55898891     0.97400
C3391       C  0.72330553  0.91413086  0.51466499     1.04900
O3392       O  0.66654870  0.82689322  0.53738068    -1.12300
O3393       O  0.58351520  0.75986619  0.52249676    -0.74800
O3394       O  0.60762679  0.82817154  0.51468113    -0.78200
O3395       O  0.73478215  0.90737726  0.55316056    -0.78900
C3396       C  0.58116928  0.78709500  0.51356034     0.96300
O3397       O  0.58721535  0.81866612  0.54867945    -0.76900
O3398       O  0.66361267  0.75889435  0.51876875    -0.82100
C3399       C  0.70608076  0.78094453  0.56065958     0.98900
C3400       C  0.70436088  0.77649002  0.51740614     1.04900
O3401       O  0.72427419  0.82241118  0.55960145    -0.77700
C3402       C  0.57566430  0.78490961  0.55714088     1.03200
C3403       C  0.70703343  0.58753509  0.23288496     0.86700
C3404       C  0.70650135  0.61734888  0.24570201    -0.53500
C3405       C  0.66817062  0.59846479  0.25371599     0.09600
C3406       C  0.63364394  0.55210635  0.24775419     0.20600
C3407       C  0.69445212  0.54419961  0.24145647    -0.54300
C3408       C  0.65616087  0.52594821  0.24948789     0.09700
C3409       C  0.66821321  0.57635978  0.22274050    -0.53800
C3410       C  0.62977666  0.55680991  0.23015615     0.10300
H3411       H  0.73497886  0.64842952  0.24907206     0.14800
H3412       H  0.60229985  0.53826940  0.25382368     0.00600
H3413       H  0.71533960  0.53102584  0.24197310     0.15100
H3414       H  0.67091369  0.58364716  0.21052024     0.14900
C3415       C  0.89072600  0.78600366  0.23399826     0.86700
C3416       C  0.92691583  0.79716058  0.24580012    -0.53500
C3417       C  0.94156315  0.83624083  0.25346507     0.09600
C3418       C  0.91986651  0.86129769  0.24804452     0.20600
C3419       C  0.85611500  0.78842234  0.24351524    -0.54300
C3420       C  0.87124722  0.82761852  0.25114118     0.09700
C3421       C  0.90909192  0.82517668  0.22322843    -0.53800
C3422       C  0.92566927  0.86472355  0.23011915     0.10300
H3423       H  0.93691150  0.77430559  0.24882089     0.14800
H3424       H  0.93242127  0.89352514  0.25387277     0.00600
H3425       H  0.82419824  0.75979197  0.24570057     0.15100
H3426       H  0.90778962  0.82148678  0.21089440     0.14900
C3427       C  0.90708971  0.59685096  0.23426078     0.86700
C3428       C  0.88199832  0.56355022  0.24727810    -0.53500
C3429       C  0.90435431  0.54621261  0.25388939     0.09600
C3430       C  0.94884170  0.56280907  0.24624893     0.20600
C3431       C  0.95069428  0.63099869  0.24211630    -0.54300
C3432       C  0.97190805  0.61271398  0.24896528     0.09700
C3433       C  0.91794585  0.57156524  0.22283556    -0.53800
C3434       C  0.94110011  0.55521749  0.22870115     0.10300
H3435       H  0.85173290  0.55802233  0.25184266     0.14800
H3436       H  0.96600456  0.54709712  0.25068377     0.00600
H3437       H  0.96048651  0.66507837  0.24386222     0.15100
H3438       H  0.90664305  0.56606054  0.21104960     0.14900
Fe3439     Fe  0.52818070  0.96253861  0.19918257     1.65800
Fe3440     Fe  0.93369503  0.95754043  0.19600979     1.73200
Fe3441     Fe  0.53606151  0.55683853  0.19741518     1.54400
O3442       O  0.58377814  0.56330038  0.21251910    -0.81500
O3443       O  0.93289386  0.98899047  0.17590974    -0.79800
O3444       O  0.56008440  0.99759068  0.21911890    -0.84000
O3445       O  0.58496099  0.50540004  0.18487957    -0.78800
O3446       O  0.50110284  0.55808427  0.21639349    -0.80600
O3447       O  0.93294652  0.90910712  0.18203380    -0.83300
C3448       C  0.59414260  0.53962190  0.17702304     0.97400
C3449       C  0.58983509  0.53754863  0.22075988     1.04900
O3450       O  0.49571875  0.99179729  0.19717453    -1.12300
O3451       O  0.92798960  0.92309604  0.21620548    -0.74800
O3452       O  0.98375571  0.91393894  0.21372123    -0.78200
O3453       O  0.57292072  0.55866791  0.17863513    -0.78900
C3454       C  0.94812257  0.90443498  0.22008842     0.96300
O3455       O  0.00086314  0.92585768  0.17934525    -0.76900
O3456       O  0.92608008  0.00111348  0.20977653    -0.82100
C3457       C  0.95829096  0.53196952  0.17492114     0.98900
C3458       C  0.95955030  0.53595256  0.21832698     1.04900
O3459       O  0.99230064  0.55861525  0.18251294    -0.77700
C3460       C  0.96113309  0.90306599  0.17569198     1.03200
C3461       C  0.59323302  0.69904617  0.37761015     0.02500
C3462       C  0.63123616  0.69761739  0.38007627     0.02500
C3463       C  0.65160138  0.69164320  0.36725844    -0.18100
C3464       C  0.63497101  0.68704784  0.35214534     0.02500
C3465       C  0.59634487  0.68698002  0.34977085     0.02500
C3466       C  0.57662971  0.69421718  0.36247808    -0.18100
H3467       H  0.54695937  0.69391819  0.36070041     0.04500
H3468       H  0.68061720  0.69069528  0.36904070     0.04500
C3469       C  0.77799113  0.86064942  0.37806312     0.02500
C3470       C  0.80229948  0.90722583  0.37962456     0.02500
C3471       C  0.81622686  0.93321212  0.36614872    -0.18100
C3472       C  0.80975898  0.91398421  0.35137302     0.02500
C3473       C  0.78806985  0.86760804  0.34979443     0.02500
C3474       C  0.77217589  0.84141579  0.36325176    -0.18100
H3475       H  0.75505862  0.80590152  0.36219837     0.04500
H3476       H  0.83443743  0.96875988  0.36719674     0.04500
C3477       C  0.62302138  0.91489857  0.37856523     0.02500
C3478       C  0.57744074  0.88742767  0.38031637     0.02500
C3479       C  0.55112242  0.87155552  0.36700742    -0.18100
C3480       C  0.56892011  0.88550974  0.35215058     0.02500
C3481       C  0.61349418  0.91776185  0.35056050     0.02500
C3482       C  0.64052258  0.93096852  0.36370946    -0.18100
H3483       H  0.67482974  0.95471894  0.36246673     0.04500
H3484       H  0.51652614  0.84915149  0.36821016     0.04500
C3485       C  0.80156368  0.89480423  0.83387343     0.86700
C3486       C  0.81371005  0.93586142  0.82396140    -0.53500
C3487       C  0.85121300  0.95136339  0.81564311     0.09600
C3488       C  0.87322356  0.92505894  0.81820962     0.20600
C3489       C  0.80011537  0.86161882  0.82205935    -0.54300
C3490       C  0.83759530  0.87758346  0.81368307     0.09700
C3491       C  0.84141714  0.90790716  0.84371956    -0.53800
C3492       C  0.87903169  0.92512964  0.83588391     0.10300
H3493       H  0.79350189  0.94975675  0.82296798     0.14800
H3494       H  0.90369282  0.93686070  0.81171746     0.00600
H3495       H  0.77084483  0.83032453  0.81948756     0.15100
H3496       H  0.84000501  0.90349746  0.85606279     0.14900
C3497       C  0.62113960  0.70483361  0.83268962     0.86700
C3498       C  0.65524855  0.70045821  0.82337737    -0.53500
C3499       C  0.63781653  0.66187757  0.81501085     0.09600
C3500       C  0.58852223  0.63127292  0.81723511     0.20600
C3501       C  0.58764605  0.69880683  0.82038197    -0.54300
C3502       C  0.57115059  0.66051455  0.81204856     0.09700
C3503       C  0.59789817  0.66373788  0.84251324    -0.53800
C3504       C  0.58133619  0.62542002  0.83487849     0.10300
H3505       H  0.68905548  0.72652210  0.82263823     0.14800
H3506       H  0.57303681  0.59950503  0.81096513     0.00600
H3507       H  0.58085642  0.72420931  0.81757236     0.15100
H3508       H  0.59420446  0.66488427  0.85475618     0.14900
C3509       C  0.60408374  0.88823324  0.83236583     0.86700
C3510       C  0.56787762  0.85857979  0.82071581    -0.53500
C3511       C  0.54874063  0.87916908  0.81383900     0.09600
C3512       C  0.56714237  0.92671700  0.81971422     0.20600
C3513       C  0.63507806  0.92957854  0.82285234    -0.54300
C3514       C  0.61550784  0.94910230  0.81582640     0.09700
C3515       C  0.58192750  0.90242745  0.84371811    -0.53800
C3516       C  0.56355276  0.92338610  0.83749131     0.10300
H3517       H  0.56022722  0.82584916  0.81759724     0.14800
H3518       H  0.55201799  0.94406623  0.81479788     0.00600
H3519       H  0.66818406  0.93912255  0.82039647     0.15100
H3520       H  0.57900035  0.89368960  0.85571543     0.14900
Fe3521     Fe  0.97996460  0.52377217  0.86553090     1.65800
Fe3522     Fe  0.97503424  0.92975128  0.86844362     1.73200
Fe3523     Fe  0.57637105  0.53041182  0.86774785     1.54400
O3524       O  0.58225316  0.56891374  0.84867975    -0.81500
O3525       O  0.51575398  0.92527035  0.88367573    -0.79800
O3526       O  0.52266506  0.57204776  0.84950043    -0.84000
O3527       O  0.51112531  0.56383291  0.88377904    -0.78800
O3528       O  0.57278121  0.97805182  0.85509301    -0.80600
O3529       O  0.93815642  0.92840042  0.88733611    -0.83300
C3530       C  0.54982132  0.58333769  0.88871492     0.97400
C3531       C  0.55989887  0.58467483  0.84413759     1.04900
O3532       O  0.50681285  0.99291712  0.86729462    -1.12300
O3533       O  0.92669234  0.92149440  0.85340515    -0.74800
O3534       O  0.94277710  0.98778070  0.84574729    -0.78200
O3535       O  0.57780310  0.57601274  0.88314444    -0.78900
C3536       C  0.91985022  0.94609726  0.84484790     0.96300
O3537       O  0.92690758  0.98173213  0.88032161    -0.76900
O3538       O  0.50505654  0.92346209  0.84979720    -0.82100
C3539       C  0.54972781  0.95234487  0.89113761     0.98900
C3540       C  0.54577205  0.94329566  0.84769384     1.04900
O3541       O  0.56866353  0.99346864  0.88905263    -0.77700
C3542       C  0.91800288  0.94859834  0.88879545     1.03200
C3543       C  0.72661320  0.95839862  0.56889907     0.86700
C3544       C  0.76238324  0.96734554  0.58071583    -0.53500
C3545       C  0.78254890  0.51448138  0.58737543     0.09600
C3546       C  0.76047648  0.53791192  0.58046727     0.20600
C3547       C  0.69388962  0.96381010  0.57854422    -0.54300
C3548       C  0.71214248  0.50349672  0.58305763     0.09700
C3549       C  0.74715641  0.99748669  0.55808779    -0.53800
C3550       C  0.76868292  0.54044501  0.56277658     0.10300
H3551       H  0.76949285  0.94245102  0.58397314     0.14800
H3552       H  0.77102348  0.57055486  0.58557700     0.00600
H3553       H  0.66138241  0.93648612  0.58094873     0.15100
H3554       H  0.74624222  0.99368311  0.54573974     0.14900
C3555       C  0.53418198  0.76763289  0.56627949     0.86700
C3556       C  0.53340535  0.80111818  0.57722810    -0.53500
C3557       C  0.99760402  0.78661140  0.58479407     0.09600
C3558       C  0.96264199  0.73940478  0.57973291     0.20600
C3559       C  0.51849118  0.72631695  0.57659557    -0.54300
C3560       C  0.98357203  0.71286188  0.58410020     0.09700
C3561       C  0.49764837  0.75519657  0.55488194    -0.53800
C3562       C  0.96078655  0.73925593  0.56190217     0.10300
H3563       H  0.56275072  0.83103056  0.58090514     0.14800
H3564       H  0.93045541  0.72809918  0.58471487     0.00600
H3565       H  0.53873377  0.71321532  0.57927055     0.15100
H3566       H  0.50267279  0.75901473  0.54257895     0.14900
C3567       C  0.73060727  0.76220154  0.56863375     0.86700
C3568       C  0.70683086  0.72509568  0.58072169    -0.53500
C3569       C  0.73159366  0.70908917  0.58632713     0.09600
C3570       C  0.77667584  0.73067762  0.57861262     0.20600
C3571       C  0.77289806  0.79631224  0.57719790    -0.54300
C3572       C  0.79631103  0.77917003  0.58296253     0.09700
C3573       C  0.74439385  0.74202603  0.55614683    -0.53800
C3574       C  0.76971032  0.72709592  0.56100240     0.10300
H3575       H  0.67593794  0.71650293  0.58568294     0.14800
H3576       H  0.79626068  0.71673392  0.58220782     0.00600
H3577       H  0.77937524  0.82842180  0.58068479     0.15100
H3578       H  0.73312929  0.73876082  0.54443702     0.14900
Fe3579     Fe  0.86783621  0.63918266  0.53116394     1.65800
Fe3580     Fe  0.77064096  0.63105464  0.52879654     1.73200
Fe3581     Fe  0.86440713  0.73123487  0.52831348     1.54400
O3582       O  0.91394014  0.74186968  0.54343505    -0.81500
O3583       O  0.76672791  0.66144217  0.50886856    -0.79800
O3584       O  0.90079477  0.67612468  0.55065135    -0.84000
O3585       O  0.91676559  0.68325307  0.51642100    -0.78800
O3586       O  0.82944953  0.73283614  0.54732756    -0.80600
O3587       O  0.76963177  0.58261692  0.51467864    -0.83300
C3588       C  0.92466158  0.71618034  0.50816897     0.97400
C3589       C  0.92169116  0.71774770  0.55196514     1.04900
O3590       O  0.83416372  0.66715303  0.52937933    -1.12300
O3591       O  0.76740396  0.59728460  0.54899644    -0.74800
O3592       O  0.82397331  0.58987887  0.54593873    -0.78200
O3593       O  0.90202339  0.73389899  0.50932979    -0.78900
C3594       C  0.78869886  0.57959215  0.55257691     0.96300
O3595       O  0.83809276  0.60102254  0.51184855    -0.76900
O3596       O  0.76335420  0.67451442  0.54273525    -0.82100
C3597       C  0.78372743  0.70249548  0.50682613     0.98900
C3598       C  0.78883242  0.71016360  0.54991945     1.04900
O3599       O  0.81906635  0.73082534  0.51337056    -0.77700
C3600       C  0.79825244  0.57699543  0.50847369     1.03200
C3601       C  0.92399074  0.81039141  0.71539308     0.02500
C3602       C  0.87998589  0.79779527  0.71466576     0.02500
C3603       C  0.85913004  0.78819823  0.70011694    -0.18100
C3604       C  0.88135160  0.79131708  0.68629199     0.02500
C3605       C  0.92608045  0.80608740  0.68702594     0.02500
C3606       C  0.94630067  0.81362111  0.70162310    -0.18100
H3607       H  0.98036716  0.82483415  0.70221033     0.04500
H3608       H  0.82540317  0.77829137  0.69955564     0.04500
C3609       C  0.71212411  0.60539769  0.71680955     0.02500
C3610       C  0.70907784  0.56443436  0.71475278     0.02500
C3611       C  0.70511593  0.54755670  0.69974806    -0.18100
C3612       C  0.70809849  0.57234795  0.68663773     0.02500
C3613       C  0.72015123  0.61685901  0.68867931     0.02500
C3614       C  0.72016216  0.63240496  0.70374187    -0.18100
H3615       H  0.72536984  0.66495366  0.70522857     0.04500
H3616       H  0.69845296  0.51441814  0.69833854     0.04500
C3617       C  0.94069842  0.61568161  0.71521320     0.02500
C3618       C  0.89938569  0.57716155  0.71749171     0.02500
C3619       C  0.87152527  0.55791433  0.70470620    -0.18100
C3620       C  0.88481617  0.57582278  0.68974661     0.02500
C3621       C  0.92643082  0.61384105  0.68753648     0.02500
C3622       C  0.95405485  0.63318864  0.70027736    -0.18100
H3623       H  0.98578085  0.66245043  0.69861147     0.04500
H3624       H  0.84019513  0.52809712  0.70628936     0.04500
C3625       C  0.85173559  0.77045955  0.64624803     0.20500
C3626       C  0.85968413  0.76388414  0.63084606    -0.39300
C3627       C  0.84582418  0.78156436  0.61933787     0.19500
C3628       C  0.82421593  0.80273414  0.62281720     0.22200
C3629       C  0.81676923  0.80987037  0.63827209    -0.39800
C3630       C  0.83207855  0.79356253  0.64984585     0.21000
N3631       N  0.86603058  0.76103536  0.65917498    -0.33100
C3632       C  0.85818155  0.78079773  0.67108306    -0.10700
C3633       C  0.83541789  0.79991829  0.66576716    -0.29500
N3634       N  0.80922901  0.81100057  0.60974465    -0.46100
C3635       C  0.82098623  0.79453448  0.59781525    -0.05400
C3636       C  0.84541903  0.77754731  0.60344662    -0.22700
H3637       H  0.87591835  0.74662100  0.62803081     0.19100
H3638       H  0.80066440  0.82724675  0.64107792     0.17900
H3639       H  0.82710326  0.82021375  0.67234832     0.14200
H3640       H  0.85658818  0.75938406  0.59702651     0.14000
H3641       H  0.88371377  0.74562600  0.65962479     0.32200
H3642       H  0.78790080  0.82220268  0.60922632     0.34900
C3643       C  0.75150862  0.66285819  0.65099136     0.20500
C3644       C  0.76389696  0.66060245  0.63576119    -0.39300
C3645       C  0.74500171  0.67212060  0.62398970     0.19500
C3646       C  0.71653106  0.68566051  0.62709173     0.22200
C3647       C  0.70409063  0.68797112  0.64236121    -0.39800
C3648       C  0.72240179  0.67565852  0.65419781     0.21000
N3649       N  0.75924530  0.64649592  0.66375579    -0.33100
C3650       C  0.73350530  0.64682679  0.67508084    -0.10700
C3651       C  0.71131293  0.66651000  0.66972914    -0.29500
N3652       N  0.70442204  0.69632964  0.61383690    -0.46100
C3653       C  0.72562631  0.68984763  0.60216650    -0.05400
C3654       C  0.75063167  0.67393295  0.60815183    -0.22700
H3655       H  0.78553423  0.64919432  0.63322493     0.19100
H3656       H  0.68059136  0.69702387  0.64479534     0.17900
H3657       H  0.68562004  0.66754419  0.67563562     0.14200
H3658       H  0.77238909  0.66724526  0.60194239     0.14000
H3659       H  0.77670320  0.63083132  0.66419404     0.32200
H3660       H  0.68540283  0.71018995  0.61297667     0.34900
C3661       C  0.99929892  0.80214120  0.62588598     0.20500
C3662       C  0.00156393  0.79163892  0.64147932    -0.39300
C3663       C  0.98464260  0.80753677  0.65250375     0.19500
C3664       C  0.96772732  0.83286424  0.64827093     0.22200
C3665       C  0.96470172  0.84260340  0.63263651    -0.39800
C3666       C  0.98065766  0.82580753  0.62158915     0.21000
N3667       N  0.00995922  0.78789265  0.61325727    -0.33100
C3668       C  0.99710824  0.80148330  0.60079913    -0.10700
C3669       C  0.97853365  0.82522338  0.60549869    -0.29500
N3670       N  0.94944665  0.83984613  0.66058092    -0.46100
C3671       C  0.95263737  0.81707954  0.67262014    -0.05400
C3672       C  0.97565027  0.79754874  0.66813098    -0.22700
H3673       H  0.50793672  0.76804950  0.64402123     0.19100
H3674       H  0.94872113  0.85976496  0.62927949     0.17900
H3675       H  0.96371082  0.83840090  0.59820767     0.14200
H3676       H  0.98068367  0.77501172  0.67486121     0.14000
H3677       H  0.51913343  0.76695250  0.61257030     0.32200
H3678       H  0.93220739  0.85574128  0.66041940     0.34900
C3679       C  0.94303057  0.66920180  0.62177477     0.20500
C3680       C  0.92123817  0.66752383  0.63537256    -0.39300
C3681       C  0.93481344  0.65664262  0.64887478     0.19500
C3682       C  0.96677640  0.64670855  0.64887394     0.22200
C3683       C  0.48738068  0.65775633  0.63610769    -0.39800
C3684       C  0.97667454  0.66180617  0.62165548     0.21000
N3685       N  0.93813470  0.68254461  0.60785346    -0.33100
C3686       C  0.97018095  0.68616457  0.59866835    -0.10700
C3687       C  0.49108872  0.67529209  0.60736264    -0.29500
N3688       N  0.97042835  0.63314269  0.66310258    -0.46100
C3689       C  0.94046341  0.63459771  0.67204444    -0.05400
C3690       C  0.91890321  0.65066612  0.66368052    -0.22700
H3691       H  0.89574789  0.67464594  0.63544626     0.19100
H3692       H  0.51498951  0.65398190  0.63664793     0.17900
H3693       H  0.52163769  0.67911640  0.60417083     0.14200
H3694       H  0.89291543  0.65458392  0.66764168     0.14000
H3695       H  0.91610846  0.69208512  0.60552017     0.32200
H3696       H  0.99002366  0.62108694  0.66628595     0.34900
C3697       C  0.84503524  0.52909831  0.65266980     0.20500
C3698       C  0.84788657  0.51226191  0.63826530    -0.39300
C3699       C  0.82993608  0.52175439  0.62553277     0.19500
C3700       C  0.81179151  0.54716787  0.62702069     0.22200
C3701       C  0.80817778  0.56327923  0.64144820    -0.39800
C3702       C  0.82482590  0.55258917  0.65424675     0.21000
N3703       N  0.86442940  0.52959996  0.66604355    -0.33100
C3704       C  0.85652418  0.55349543  0.67621536    -0.10700
C3705       C  0.83053668  0.56702323  0.66941758    -0.29500
N3706       N  0.79661349  0.55112335  0.61329864    -0.46100
C3707       C  0.80346003  0.52664604  0.60298029    -0.05400
C3708       C  0.82484888  0.50829541  0.61020476    -0.22700
H3709       H  0.87427613  0.98426117  0.63263571     0.19100
H3710       H  0.79381893  0.58306619  0.64259497     0.17900
H3711       H  0.82236591  0.58971158  0.67422491     0.14200
H3712       H  0.83661550  0.97977139  0.60214625     0.14000
H3713       H  0.88561449  0.51850834  0.66766149     0.32200
H3714       H  0.77970322  0.56697048  0.61149543     0.34900
C3715       C  0.69068611  0.49460519  0.62357281     0.20500
C3716       C  0.70080822  0.48921658  0.63885692    -0.39300
C3717       C  0.69478966  0.51337203  0.65029133     0.19500
C3718       C  0.67813121  0.53935219  0.64682012     0.22200
C3719       C  0.66900741  0.54564634  0.63148622    -0.39800
C3720       C  0.67681656  0.52295620  0.61994598     0.21000
N3721       N  0.69226166  0.98332986  0.61391240    -0.33100
C3722       C  0.69341927  0.50093856  0.59857592    -0.10700
C3723       C  0.67885382  0.52772879  0.60393360    -0.29500
N3724       N  0.67774880  0.56077508  0.65953966    -0.46100
C3725       C  0.69688697  0.55080947  0.67103072    -0.05400
C3726       C  0.70695599  0.52028987  0.66575414    -0.22700
H3727       H  0.69762233  0.97031979  0.64564854     0.19100
H3728       H  0.65943304  0.56886571  0.62867632     0.17900
H3729       H  0.67439380  0.55066749  0.59721638     0.14200
H3730       H  0.72356041  0.50722257  0.67204986     0.14000
H3731       H  0.69998032  0.95902064  0.61423148     0.32200
H3732       H  0.66601434  0.58179339  0.66014297     0.34900
C3733       C  0.96364855  0.84925077  0.75371029     0.20500
C3734       C  0.47299718  0.87538904  0.76531296    -0.39300
C3735       C  0.48926655  0.86416896  0.77806178     0.19500
C3736       C  0.99648378  0.82981639  0.77919857     0.22200
C3737       C  0.99247951  0.80750817  0.76523862    -0.39800
C3738       C  0.97540875  0.81831341  0.75255193     0.21000
N3739       N  0.94758739  0.85311711  0.74017478    -0.33100
C3740       C  0.94767844  0.82342663  0.73039837    -0.10700
C3741       C  0.96560105  0.80161951  0.73760700    -0.29500
N3742       N  0.51583899  0.82870445  0.79083097    -0.46100
C3743       C  0.52081362  0.86240884  0.79975840    -0.05400
C3744       C  0.50370763  0.88462325  0.79219511    -0.22700
H3745       H  0.46755512  0.90237989  0.76569539     0.19100
H3746       H  0.00246728  0.78393212  0.76427268     0.17900
H3747       H  0.96829674  0.77509555  0.73290252     0.14200
H3748       H  0.50415615  0.91373883  0.79589862     0.14000
H3749       H  0.43892433  0.87570106  0.73588827     0.32200
H3750       H  0.03150732  0.81172561  0.79415813     0.34900
C3751       C  0.67239007  0.49135913  0.74673478     0.20500
C3752       C  0.63817211  0.46082275  0.75608479    -0.39300
C3753       C  0.63436309  0.00996862  0.77990136     0.19500
C3754       C  0.65668237  0.98878715  0.77781424     0.22200
C3755       C  0.67435398  0.98811506  0.76340027    -0.39800
C3756       C  0.71112467  0.52443646  0.75304807     0.21000
N3757       N  0.67002021  0.49843241  0.73153544    -0.33100
C3758       C  0.70644429  0.53732897  0.72823225    -0.10700
C3759       C  0.73363746  0.55376244  0.74122377    -0.29500
N3760       N  0.65640175  0.96815524  0.79090535    -0.46100
C3761       C  0.63302079  0.97540993  0.80140313    -0.05400
C3762       C  0.61911310  0.00183423  0.79496859    -0.22700
H3763       H  0.60702157  0.43658004  0.75125973     0.19100
H3764       H  0.69214406  0.97185400  0.76181391     0.17900
H3765       H  0.76277106  0.58591297  0.74240928     0.14200
H3766       H  0.59828916  0.01141301  0.80024142     0.14000
H3767       H  0.64266526  0.48135158  0.72446380     0.32200
H3768       H  0.66841076  0.94743953  0.79216575     0.34900
C3769       C  0.51261079  0.65885929  0.77820509     0.20500
C3770       C  0.98888380  0.66670403  0.76873031    -0.39300
C3771       C  0.98780113  0.65649823  0.75289691     0.19500
C3772       C  0.50741144  0.64093700  0.74684398     0.22200
C3773       C  0.53464538  0.63293928  0.75591817    -0.39800
C3774       C  0.53601386  0.64224296  0.77180868     0.21000
N3775       N  0.52098106  0.66653185  0.79351323    -0.33100
C3776       C  0.54939019  0.65398481  0.79687568    -0.10700
C3777       C  0.55918639  0.63836646  0.78365014    -0.29500
N3778       N  0.49750022  0.63094982  0.73175526    -0.46100
C3779       C  0.97061011  0.63722326  0.72837898    -0.05400
C3780       C  0.96173766  0.65556074  0.74106310    -0.22700
H3781       H  0.97055241  0.68013838  0.77334701     0.19100
H3782       H  0.55285412  0.61969672  0.75101683     0.17900
H3783       H  0.58169788  0.62744325  0.78264752     0.14200
H3784       H  0.93603565  0.66221243  0.74201911     0.14000
H3785       H  0.01142883  0.68067818  0.80085303     0.32200
H3786       H  0.50863377  0.61565167  0.72445977     0.34900
C3787       C  0.70738381  0.64994069  0.75390047     0.20500
C3788       C  0.71976177  0.68059113  0.76614814    -0.39300
C3789       C  0.69554448  0.66435164  0.78000458     0.19500
C3790       C  0.66275828  0.62074692  0.78156063     0.22200
C3791       C  0.64994173  0.59065736  0.76932148    -0.39800
C3792       C  0.67293770  0.60715729  0.75546948     0.21000
N3793       N  0.72514836  0.65618733  0.73960205    -0.33100
C3794       C  0.70157494  0.61684975  0.73217490    -0.10700
C3795       C  0.66776772  0.58634072  0.74158537    -0.29500
N3796       N  0.64241950  0.61378095  0.79518564    -0.46100
C3797       C  0.66037458  0.65349865  0.80228306    -0.05400
C3798       C  0.69465039  0.68582529  0.79330852    -0.22700
H3799       H  0.74543008  0.71468356  0.76485344     0.19100
H3800       H  0.62310769  0.55699432  0.77038114     0.17900
H3801       H  0.64337843  0.55263598  0.73884362     0.14200
H3802       H  0.71314861  0.72094685  0.79536624     0.14000
H3803       H  0.75244585  0.68471192  0.73540268     0.32200
H3804       H  0.61552286  0.58396541  0.79872551     0.34900
C3805       C  0.86043317  0.00645244  0.78026617     0.20500
C3806       C  0.83378731  0.51874923  0.77005901    -0.39300
C3807       C  0.85858886  0.53266718  0.75630274     0.19500
C3808       C  0.91466775  0.03343528  0.75503400     0.22200
C3809       C  0.93107741  0.02965506  0.76925254    -0.39800
C3810       C  0.90250720  0.01629935  0.78179008     0.21000
N3811       N  0.83776058  0.98702939  0.79325429    -0.33100
C3812       C  0.86554900  0.98394534  0.80295032    -0.10700
C3813       C  0.90664146  0.00356417  0.79636403    -0.29500
N3814       N  0.91459552  0.54737420  0.74108442    -0.46100
C3815       C  0.88742562  0.55504574  0.73290432    -0.05400
C3816       C  0.85131516  0.54525174  0.74189086    -0.22700
H3817       H  0.80201536  0.51434305  0.77070052     0.19100
H3818       H  0.96328729  0.03530285  0.77035843     0.17900
H3819       H  0.93459265  0.00374249  0.80079260     0.14200
H3820       H  0.82459438  0.54883621  0.73858825     0.14000
H3821       H  0.80164782  0.47809704  0.79952960     0.32200
H3822       H  0.96572338  0.04977202  0.73920221     0.34900
C3823       C  0.83638142  0.85114120  0.77340088     0.20500
C3824       C  0.83507664  0.85698838  0.75730132    -0.39300
C3825       C  0.83982712  0.82795378  0.74776784     0.19500
C3826       C  0.84603924  0.79581468  0.75382413     0.22200
C3827       C  0.84726620  0.78988188  0.76999758    -0.39800
C3828       C  0.84188829  0.81863849  0.77956627     0.21000
N3829       N  0.83428272  0.87571918  0.78476270    -0.33100
C3830       C  0.83795140  0.85873010  0.79835153    -0.10700
C3831       C  0.84275639  0.82295862  0.79563150    -0.29500
N3832       N  0.85594512  0.77686786  0.74238179    -0.46100
C3833       C  0.85665435  0.79743608  0.72896316    -0.05400
C3834       C  0.84564996  0.82875078  0.73187345    -0.22700
H3835       H  0.83216230  0.88335761  0.75253784     0.19100
H3836       H  0.85350416  0.76571326  0.77476631     0.17900
H3837       H  0.84714233  0.80343021  0.80419390     0.14200
H3838       H  0.84741484  0.85284393  0.72377891     0.14000
H3839       H  0.83067526  0.90264203  0.78336612     0.32200
H3840       H  0.86584656  0.75443723  0.74381066     0.34900
C3841       C  0.55460921  0.64598271  0.31162419     0.20500
C3842       C  0.54616429  0.61930795  0.29853782    -0.39300
C3843       C  0.53180082  0.63082324  0.28529144     0.19500
C3844       C  0.02323389  0.66516418  0.28495193     0.22200
C3845       C  0.03109480  0.69149957  0.29823103    -0.39800
C3846       C  0.55005892  0.68202415  0.31142841     0.21000
N3847       N  0.56846412  0.64162175  0.32556408    -0.33100
C3848       C  0.57489335  0.67620911  0.33425061    -0.10700
C3849       C  0.56290125  0.70178786  0.32592177    -0.29500
N3850       N  0.00596118  0.66666430  0.27123329    -0.46100
C3851       C  0.00145825  0.63248626  0.26264420    -0.05400
C3852       C  0.51734175  0.60936917  0.27131618    -0.22700
H3853       H  0.54980354  0.59113169  0.29874117     0.19100
H3854       H  0.02648437  0.71904460  0.29819947     0.17900
H3855       H  0.05958503  0.72839933  0.33011422     0.14200
H3856       H  0.51595313  0.57937713  0.26820419     0.14000
H3857       H  0.57332139  0.61648549  0.32891574     0.32200
H3858       H  0.99454296  0.68725150  0.26851266     0.34900
C3859       C  0.85822521  0.96051602  0.31509771     0.20500
C3860       C  0.88033851  0.96288243  0.30143570    -0.39300
C3861       C  0.87031197  0.97920048  0.28834336     0.19500
C3862       C  0.84025926  0.99170985  0.28880327     0.22200
C3863       C  0.81800350  0.98918289  0.30244541    -0.39800
C3864       C  0.82834188  0.97333635  0.31559250     0.21000
N3865       N  0.85890148  0.94225646  0.32863461    -0.33100
C3866       C  0.82880781  0.94281433  0.33772732    -0.10700
C3867       C  0.80976468  0.96292958  0.33014514    -0.29500
N3868       N  0.87412992  0.53729988  0.28076513    -0.46100
C3869       C  0.89600825  0.52872076  0.26999487    -0.05400
C3870       C  0.91728424  0.51002024  0.27700253    -0.22700
H3871       H  0.90347790  0.95257507  0.30102016     0.19100
H3872       H  0.79425816  0.99870290  0.30277627     0.17900
H3873       H  0.78244076  0.96470815  0.33404024     0.15400
H3874       H  0.93801946  0.50056682  0.27159130     0.14000
H3875       H  0.87569150  0.92652927  0.33101966     0.32200
H3876       H  0.85687608  0.55282455  0.27902731     0.34900
C3877       C  0.97893488  0.86009607  0.29268273     0.20500
C3878       C  0.97672946  0.86938134  0.30838776    -0.39300
C3879       C  0.50133805  0.86762108  0.31858320     0.19500
C3880       C  0.52779290  0.85286402  0.31372771     0.22200
C3881       C  0.53016710  0.84302187  0.29810265    -0.39800
C3882       C  0.50415853  0.84925573  0.28769081     0.21000
N3883       N  0.95697674  0.86338026  0.28075203    -0.33100
C3884       C  0.96619796  0.84689297  0.26818451    -0.10700
C3885       C  0.49639116  0.83965444  0.27205288    -0.29500
N3886       N  0.55179718  0.85288676  0.32560007    -0.46100
C3887       C  0.54088437  0.86791628  0.33815664    -0.05400
C3888       C  0.50869656  0.87654173  0.33430381    -0.22700
H3889       H  0.95731988  0.88237833  0.31226355     0.19100
H3890       H  0.55074434  0.83130778  0.29433971     0.17900
H3891       H  0.50916713  0.82444448  0.26477804     0.14200
H3892       H  0.99813756  0.88678882  0.34162101     0.14000
H3893       H  0.93504836  0.87378435  0.28138431     0.32200
H3894       H  0.57665818  0.84648199  0.32493463     0.34900
C3895       C  0.83134733  0.81729129  0.29001924     0.20500
C3896       C  0.82772629  0.80626034  0.30586672    -0.39300
C3897       C  0.80668795  0.82143426  0.31524923     0.19500
C3898       C  0.78977911  0.84514392  0.30923401     0.22200
C3899       C  0.79416620  0.85698203  0.29337853    -0.39800
C3900       C  0.81600496  0.84246316  0.28401684     0.21000
N3901       N  0.85158268  0.80822851  0.27896558    -0.33100
C3902       C  0.85012486  0.82836748  0.26582103    -0.10700
C3903       C  0.82825544  0.85029459  0.26848381    -0.29500
N3904       N  0.77525010  0.85939599  0.32079244    -0.46100
C3905       C  0.78496692  0.84677734  0.33434837    -0.05400
C3906       C  0.80338719  0.82175816  0.33126388    -0.22700
H3907       H  0.84189541  0.78865577  0.31065819     0.19100
H3908       H  0.78313793  0.87767145  0.28883130     0.17900
H3909       H  0.82266364  0.86976212  0.26027904     0.14200
H3910       H  0.81725470  0.80997007  0.33962751     0.14000
H3911       H  0.86669149  0.79039095  0.28036348     0.32200
H3912       H  0.76246848  0.87939930  0.31952463     0.34900
C3913       C  0.65111262  0.46577974  0.28330820     0.20500
C3914       C  0.66961634  0.45838933  0.29648355    -0.39300
C3915       C  0.65061481  0.95584951  0.31110244     0.19500
C3916       C  0.61768928  0.96359513  0.31371317     0.22200
C3917       C  0.59726914  0.97210748  0.30171100    -0.39800
C3918       C  0.61041899  0.45994275  0.28378584     0.21000
N3919       N  0.67084016  0.48489849  0.26980634    -0.33100
C3920       C  0.64262725  0.49171567  0.26175779    -0.10700
C3921       C  0.60368747  0.47415612  0.26986813    -0.29500
N3922       N  0.60599958  0.95749818  0.32863151    -0.46100
C3923       C  0.62886223  0.94226379  0.33566821    -0.05400
C3924       C  0.65817422  0.94183459  0.32519848    -0.22700
H3925       H  0.70150652  0.46302586  0.29621686     0.19100
H3926       H  0.57076001  0.97700653  0.30384336     0.17900
H3927       H  0.57624821  0.47701736  0.26713035     0.14200
H3928       H  0.67895986  0.92908359  0.32720675     0.14000
H3929       H  0.70332795  0.49748678  0.26719920     0.32200
H3930       H  0.58089347  0.95972769  0.33345988     0.34900
C3931       C  0.67301730  0.65665869  0.28852652     0.20500
C3932       C  0.68094845  0.69235685  0.29793417    -0.39300
C3933       C  0.67385719  0.68358995  0.31397297     0.19500
C3934       C  0.66050479  0.64259310  0.32017269     0.22200
C3935       C  0.65158773  0.60678703  0.31073252    -0.39800
C3936       C  0.65810697  0.61541433  0.29474892     0.21000
N3937       N  0.67776981  0.65621854  0.27298067    -0.33100
C3938       C  0.66503890  0.61412344  0.26934033    -0.10700
C3939       C  0.65231874  0.58786748  0.28262065    -0.29500
N3940       N  0.65146024  0.64123182  0.33538933    -0.46100
C3941       C  0.65716634  0.68092932  0.33884514    -0.05400
C3942       C  0.67222366  0.70862021  0.32585134    -0.22700
H3943       H  0.69072036  0.72423681  0.29309395     0.19100
H3944       H  0.63926649  0.57420215  0.31544654     0.17900
H3945       H  0.64209611  0.55365334  0.28347003     0.14200
H3946       H  0.67593490  0.74060513  0.32475084     0.14000
H3947       H  0.68922184  0.68281796  0.26535493     0.32200
H3948       H  0.63668336  0.61321974  0.34242890     0.34900
C3949       C  0.82812585  0.95859173  0.44663222     0.20500
C3950       C  0.83446564  0.93207969  0.43629019    -0.39300
C3951       C  0.82997815  0.93820318  0.42040009     0.19500
C3952       C  0.81837680  0.96720901  0.41518658     0.22200
C3953       C  0.81314464  0.99454223  0.42550166    -0.39800
C3954       C  0.81929127  0.98964008  0.44135470     0.21000
N3955       N  0.82584786  0.95581987  0.46228424    -0.33100
C3956       C  0.81681132  0.98628871  0.46704113    -0.10700
C3957       C  0.81304383  0.00830506  0.45428831    -0.29500
N3958       N  0.80968690  0.96196145  0.39981096    -0.46100
C3959       C  0.81558059  0.92917032  0.39518822    -0.05400
C3960       C  0.83016558  0.91509377  0.40764117    -0.22700
H3961       H  0.85936417  0.41563075  0.44546716     0.19100
H3962       H  0.80315538  0.01663323  0.42155474     0.17900
H3963       H  0.80308701  0.03197377  0.45443248     0.14200
H3964       H  0.83685278  0.88899389  0.40763673     0.14000
H3965       H  0.83651304  0.43760324  0.47315305     0.32200
H3966       H  0.79753645  0.97749605  0.39312451     0.34900
C3967       C  0.68687642  0.93601332  0.44303345     0.20500
C3968       C  0.67124350  0.90443090  0.43110737    -0.39300
C3969       C  0.66954012  0.91958545  0.41621335     0.19500
C3970       C  0.68270028  0.96300873  0.41336188     0.22200
C3971       C  0.69820422  0.99454369  0.42534255    -0.39800
C3972       C  0.69957314  0.97927261  0.44028445     0.21000
N3973       N  0.69286405  0.93011992  0.45805478    -0.33100
C3974       C  0.70993183  0.96997196  0.46506740    -0.10700
C3975       C  0.71384942  0.00132476  0.45430251    -0.29500
N3976       N  0.67291231  0.96789226  0.39867282    -0.46100
C3977       C  0.65211617  0.92708382  0.39226930    -0.05400
C3978       C  0.65052028  0.89634676  0.40276449    -0.22700
H3979       H  0.66012723  0.87026483  0.43333900     0.19100
H3980       H  0.71387266  0.53082054  0.42011440     0.17900
H3981       H  0.73704929  0.54034965  0.45279157     0.14200
H3982       H  0.63290721  0.86094993  0.40138993     0.14000
H3983       H  0.68728631  0.90090568  0.46300680     0.32200
H3984       H  0.67541044  0.99607319  0.39394760     0.34900
C3985       C  0.65217485  0.71134216  0.42070907     0.20500
C3986       C  0.64538085  0.72331927  0.43536707    -0.39300
C3987       C  0.64826228  0.70011944  0.44788358     0.19500
C3988       C  0.65995274  0.66937814  0.44612580     0.22200
C3989       C  0.66462351  0.65567256  0.43126649    -0.39800
C3990       C  0.65889170  0.67711413  0.41857135     0.21000
N3991       N  0.64909306  0.72745334  0.40709192    -0.33100
C3992       C  0.64857680  0.70036331  0.39602458    -0.10700
C3993       C  0.65662128  0.66953699  0.40268744    -0.29500
N3994       N  0.67038844  0.66000784  0.46004167    -0.46100
C3995       C  0.66532324  0.68523932  0.47066297    -0.05400
C3996       C  0.64859192  0.70817137  0.46340881    -0.22700
H3997       H  0.63897840  0.74941971  0.43693551     0.19100
H3998       H  0.67254880  0.63067396  0.42971577     0.17900
H3999       H  0.65677732  0.64278961  0.39687812     0.14200
H4000       H  0.64360029  0.73297308  0.46831119     0.14000
H4001       H  0.64673652  0.75498958  0.40556955     0.32200
H4002       H  0.68545216  0.64225911  0.46177687     0.34900
C4003       C  0.74261674  0.82157008  0.41626612     0.20500
C4004       C  0.73432766  0.82867267  0.43157575    -0.39300
C4005       C  0.74830874  0.81170039  0.44330026     0.19500
C4006       C  0.76880316  0.78924991  0.44001344     0.22200
C4007       C  0.77690620  0.78193554  0.42472881    -0.39800
C4008       C  0.76327043  0.79919018  0.41298393     0.21000
N4009       N  0.73910879  0.84065216  0.40337355    -0.33100
C4010       C  0.75936629  0.83212675  0.39193637    -0.10700
C4011       C  0.77322842  0.80475207  0.39735382    -0.29500
N4012       N  0.77815176  0.77565784  0.45315183    -0.46100
C4013       C  0.76304294  0.78902062  0.46495395    -0.05400
C4014       C  0.74444515  0.81193056  0.45922956    -0.22700
H4015       H  0.71944395  0.84737163  0.43417433     0.19100
H4016       H  0.79409257  0.76549418  0.42219231     0.17900
H4017       H  0.79386025  0.79613290  0.39133565     0.14200
H4018       H  0.72802581  0.82474521  0.46575299     0.14000
H4019       H  0.72872649  0.86288983  0.40286673     0.32200
H4020       H  0.79119897  0.75575461  0.45391938     0.34900
C4021       C  0.50657483  0.82078525  0.44353978     0.20500
C4022       C  0.49758221  0.80649248  0.42802360    -0.39300
C4023       C  0.52139922  0.83859314  0.41675072     0.19500
C4024       C  0.55073408  0.88193023  0.42067862     0.22200
C4025       C  0.56076928  0.89593130  0.43621246    -0.39800
C4026       C  0.53813301  0.86341951  0.44751625     0.21000
N4027       N  0.49179946  0.79543373  0.45624809    -0.33100
C4028       C  0.51539176  0.82124763  0.46837455    -0.10700
C4029       C  0.54456652  0.86412397  0.46342483    -0.29500
N4030       N  0.57113288  0.90538939  0.40797186    -0.46100
C4031       C  0.55694153  0.87644596  0.39595975    -0.05400
C4032       C  0.52486810  0.83452944  0.40092520    -0.22700
H4033       H  0.97603776  0.77494088  0.42474429     0.19100
H4034       H  0.58627237  0.92902362  0.43923510     0.17900
H4035       H  0.56918252  0.89112844  0.47028449     0.14200
H4036       H  0.50888858  0.80453753  0.39414601     0.14000
H4037       H  0.96892027  0.76490103  0.45629133     0.32200
H4038       H  0.59461615  0.93888353  0.40768310     0.34900
C4039       C  0.53927168  0.68683690  0.41363954     0.20500
C4040       C  0.52017554  0.66594667  0.42785477    -0.39300
C4041       C  0.52417916  0.69384386  0.44014829     0.19500
C4042       C  0.54728822  0.73903802  0.43847376     0.22200
C4043       C  0.56484930  0.75978257  0.42416537    -0.39800
C4044       C  0.55904093  0.73184143  0.41171658     0.21000
N4045       N  0.54532704  0.66868095  0.40095099    -0.33100
C4046       C  0.56864676  0.70219227  0.39082200    -0.10700
C4047       C  0.57610932  0.74186242  0.39688063    -0.29500
N4048       N  0.54883950  0.75854497  0.45196052    -0.46100
C4049       C  0.52437205  0.72589567  0.46225665    -0.05400
C4050       C  0.50860173  0.68476863  0.45530066    -0.22700
H4051       H  0.50428628  0.63069851  0.42932697     0.19100
H4052       H  0.58261589  0.79522758  0.42291651     0.17900
H4053       H  0.59697102  0.77442648  0.39207104     0.14200
H4054       H  0.48804642  0.65272066  0.46050933     0.14000
H4055       H  0.53747119  0.63619871  0.39978764     0.32200
H4056       H  0.56450582  0.79241460  0.45375480     0.34900
C4057       C  0.93181956  0.63579748  0.10830772     0.20500
C4058       C  0.91260878  0.64638075  0.09636663    -0.39300
C4059       C  0.92644487  0.64542824  0.08128345     0.19500
C4060       C  0.95734219  0.63485572  0.07829998     0.22200
C4061       C  0.46492813  0.61876124  0.08918259    -0.39800
C4062       C  0.96207994  0.62447762  0.10543963     0.21000
N4063       N  0.92366201  0.63412630  0.12355098    -0.33100
C4064       C  0.94786203  0.62033233  0.13062763    -0.10700
C4065       C  0.97295901  0.61471710  0.11962823    -0.29500
N4066       N  0.45650996  0.63793330  0.06248984    -0.46100
C4067       C  0.95042560  0.66378709  0.05732140    -0.05400
C4068       C  0.92074580  0.66268257  0.06784140    -0.22700
H4069       H  0.88989729  0.65654232  0.09872083     0.19100
H4070       H  0.48905502  0.61072793  0.08651474     0.17900
H4071       H  0.48770573  0.60049425  0.12006787     0.14200
H4072       H  0.90313259  0.67928494  0.06669187     0.14000
H4073       H  0.90129374  0.64027215  0.12859057     0.32200
H4074       H  0.48220417  0.63742644  0.05731290     0.34900
C4075       C  0.86376190  0.81146185  0.10761990     0.20500
C4076       C  0.86564713  0.83085741  0.09316298    -0.39300
C4077       C  0.85132354  0.80242740  0.08025131     0.19500
C4078       C  0.83648491  0.75808956  0.08173842     0.22200
C4079       C  0.83494964  0.73889772  0.09615663    -0.39800
C4080       C  0.84903160  0.76725050  0.10898970     0.21000
N4081       N  0.87649011  0.83147866  0.12154238    -0.33100
C4082       C  0.87062834  0.79991953  0.13184150    -0.10700
C4083       C  0.85268673  0.75922667  0.12439453    -0.29500
N4084       N  0.81731906  0.73653403  0.06854965    -0.46100
C4085       C  0.81824842  0.76668146  0.05869499    -0.05400
C4086       C  0.84100084  0.80867417  0.06534162    -0.22700
H4087       H  0.87588744  0.86518838  0.09213699     0.19100
H4088       H  0.82207323  0.70398939  0.09737555     0.17900
H4089       H  0.84600850  0.72839851  0.12931934     0.14200
H4090       H  0.84287799  0.83801926  0.06095408     0.14000
H4091       H  0.89164670  0.86522909  0.12359372     0.32200
H4092       H  0.79930056  0.70238336  0.06713130     0.34900
C4093       C  0.99556386  0.78910775  0.11383773     0.20500
C4094       C  0.49843775  0.75999336  0.10303166    -0.39300
C4095       C  0.00401692  0.76896051  0.08829860     0.19500
C4096       C  0.99169750  0.79635398  0.08200533     0.22200
C4097       C  0.98231376  0.82239636  0.09138626    -0.39800
C4098       C  0.98538777  0.81816906  0.10749646     0.21000
N4099       N  0.99131676  0.78752352  0.12943290    -0.33100
C4100       C  0.97956679  0.81671927  0.13305072    -0.10700
C4101       C  0.97572211  0.83651474  0.11966643    -0.29500
N4102       N  0.98761485  0.79163069  0.06645974    -0.46100
C4103       C  0.99716717  0.76080196  0.06275488    -0.05400
C4104       C  0.49689645  0.74152771  0.07455401    -0.22700
H4105       H  0.50610211  0.73668206  0.10763175     0.19100
H4106       H  0.97198154  0.84334231  0.08652094     0.17900
H4107       H  0.96420478  0.85886532  0.11888734     0.14200
H4108       H  0.50665043  0.71776700  0.07501076     0.14000
H4109       H  0.49220438  0.76504352  0.13589142     0.32200
H4110       H  0.97657630  0.80659219  0.05892816     0.34900
C4111       C  0.67366555  0.65572919  0.11336627     0.20500
C4112       C  0.66305272  0.64302846  0.09774006    -0.39300
C4113       C  0.68864263  0.67492570  0.08661178     0.19500
C4114       C  0.72099773  0.71690313  0.09076131     0.22200
C4115       C  0.73282880  0.72916282  0.10639947    -0.39800
C4116       C  0.70851132  0.69649678  0.11754615     0.21000
N4117       N  0.65761876  0.62939495  0.12583797    -0.33100
C4118       C  0.68360936  0.65232717  0.13799124    -0.10700
C4119       C  0.71572022  0.69461575  0.13330593    -0.29500
N4120       N  0.74103929  0.74074419  0.07802764    -0.46100
C4121       C  0.72381431  0.71307773  0.06564744    -0.05400
C4122       C  0.69008419  0.67181615  0.07061638    -0.22700
H4123       H  0.63820945  0.60987347  0.09449802     0.19100
H4124       H  0.76049702  0.76089321  0.10957060     0.17900
H4125       H  0.74281657  0.71909858  0.14011812     0.14200
H4126       H  0.67080619  0.64267814  0.06360959     0.14000
H4127       H  0.63350559  0.59616305  0.12574322     0.32200
H4128       H  0.76502328  0.77400469  0.07794058     0.34900
C4129       C  0.82946784  0.49807959  0.11304841     0.20500
C4130       C  0.82981324  0.48280573  0.09792610    -0.39300
C4131       C  0.81685890  0.50013259  0.08580890     0.19500
C4132       C  0.80676315  0.53172101  0.08862399     0.22200
C4133       C  0.80492523  0.54565180  0.10361674    -0.39800
C4134       C  0.81566426  0.52687719  0.11567065     0.21000
N4135       N  0.84610586  0.49228537  0.12624452    -0.33100
C4136       C  0.84270968  0.51767252  0.13726730    -0.10700
C4137       C  0.82189197  0.53786673  0.13109330    -0.29500
N4138       N  0.79877558  0.54569110  0.07535446    -0.46100
C4139       C  0.79986330  0.52050557  0.06383949    -0.05400
C4140       C  0.81238579  0.49234524  0.06988296    -0.22700
H4141       H  0.84040809  0.46012869  0.09571976     0.19100
H4142       H  0.79679078  0.57031651  0.10571457     0.17900
H4143       H  0.81702827  0.56219203  0.13653115     0.14200
H4144       H  0.81333651  0.96531070  0.06357338     0.14000
H4145       H  0.86330659  0.47643999  0.12714833     0.32200
H4146       H  0.79451329  0.57214298  0.07432887     0.34900
C4147       C  0.69335890  0.51080343  0.07982467     0.20500
C4148       C  0.67669222  0.49072465  0.09435207    -0.39300
C4149       C  0.68141695  0.51910725  0.10655143     0.19500
C4150       C  0.70299240  0.56412895  0.10449217     0.22200
C4151       C  0.71815545  0.58404827  0.08989959    -0.39800
C4152       C  0.71160235  0.55552563  0.07755603     0.21000
N4153       N  0.69986962  0.49255695  0.06727407    -0.33100
C4154       C  0.72219981  0.52572778  0.05693170    -0.10700
C4155       C  0.72830055  0.56515973  0.06266513    -0.29500
N4156       N  0.70675284  0.58433040  0.11804471    -0.46100
C4157       C  0.68514758  0.55214759  0.12878744    -0.05400
C4158       C  0.66903733  0.51076438  0.12204506    -0.22700
H4159       H  0.66261623  0.45581292  0.09615953     0.19100
H4160       H  0.73532704  0.61939842  0.08839473     0.17900
H4161       H  0.74883674  0.59764662  0.05775169     0.14200
H4162       H  0.65083601  0.47902300  0.12768791     0.14000
H4163       H  0.69377087  0.46061930  0.06646623     0.32200
H4164       H  0.72277119  0.61824399  0.11973139     0.34900
C4165       C  0.63443042  0.68265431  0.96205955     0.20500
C4166       C  0.63041405  0.69287292  0.97748180    -0.39300
C4167       C  0.65404835  0.68536981  0.98863666     0.19500
C4168       C  0.68045744  0.66979318  0.98460988     0.22200
C4169       C  0.68362125  0.65854914  0.96921520    -0.39800
C4170       C  0.65925771  0.66523698  0.95811868     0.21000
N4171       N  0.61594451  0.68774861  0.94936613    -0.33100
C4172       C  0.62788076  0.67228308  0.93722546    -0.10700
C4173       C  0.65505813  0.65796055  0.94224639    -0.29500
N4174       N  0.70577506  0.67361915  0.99666133    -0.46100
C4175       C  0.69585673  0.69213101  0.00840432    -0.05400
C4176       C  0.66239574  0.69825600  0.00402679    -0.22700
H4177       H  0.61157546  0.70725050  0.98048471     0.19100
H4178       H  0.70479996  0.64705236  0.96602710     0.17900
H4179       H  0.66921470  0.64353724  0.93528168     0.14200
H4180       H  0.65103006  0.71642308  0.01033749     0.14000
H4181       H  0.59514785  0.69960348  0.94912348     0.32200
H4182       H  0.73168847  0.66875683  0.99635437     0.34900
C4183       C  0.49286606  0.64265215  0.95381775     0.20500
C4184       C  0.48662622  0.62862189  0.96938372    -0.39300
C4185       C  0.47191462  0.64893037  0.97942317     0.19500
C4186       C  0.46270570  0.67973060  0.97419983     0.22200
C4187       C  0.46971886  0.69435944  0.95868935    -0.39800
C4188       C  0.48575104  0.67510176  0.94875899     0.21000
N4189       N  0.51085189  0.63176323  0.94247849    -0.33100
C4190       C  0.51625689  0.65813294  0.93024046    -0.10700
C4191       C  0.50111031  0.68576241  0.93369252    -0.29500
N4192       N  0.96589625  0.70808704  0.98732581    -0.46100
C4193       C  0.45975677  0.68016176  0.99931517    -0.05400
C4194       C  0.46969244  0.64847557  0.99547795    -0.22700
H4195       H  0.49517693  0.60559286  0.97355580     0.19100
H4196       H  0.97642004  0.73205388  0.95601082     0.17900
H4197       H  0.50309689  0.71158260  0.92647623     0.14200
H4198       H  0.47880755  0.63110952  0.00337142     0.14000
H4199       H  0.52161202  0.60988381  0.94333874     0.32200
H4200       H  0.96103318  0.73434761  0.98702700     0.34900
C4201       C  0.81165845  0.78857253  0.97928760     0.20500
C4202       C  0.83945745  0.80085226  0.96626398    -0.39300
C4203       C  0.82483499  0.81077234  0.95246879     0.19500
C4204       C  0.78492300  0.80674178  0.95168822     0.22200
C4205       C  0.75809147  0.79581026  0.96468423    -0.39800
C4206       C  0.77344618  0.78795815  0.97844274     0.21000
N4207       N  0.81713822  0.77734458  0.99380573    -0.33100
C4208       C  0.78205769  0.76994912  0.00213936    -0.10700
C4209       C  0.75552616  0.77837726  0.99296952    -0.29500
N4210       N  0.77950512  0.82129882  0.93802234    -0.46100
C4211       C  0.81707659  0.83760309  0.93006352    -0.05400
C4212       C  0.84584579  0.83034688  0.93858206    -0.22700
H4213       H  0.87069637  0.80403396  0.96696719     0.19100
H4214       H  0.72796261  0.79507412  0.96425335     0.17900
H4215       H  0.72619401  0.77683452  0.99636632     0.14200
H4216       H  0.87934764  0.84252171  0.93588116     0.14000
H4217       H  0.84224128  0.77352733  0.99763646     0.32200
H4218       H  0.75289594  0.82354880  0.93507845     0.34900
C4219       C  0.82892215  0.98192647  0.98781069     0.20500
C4220       C  0.82735283  0.94917311  0.97834908    -0.39300
C4221       C  0.83521992  0.95918738  0.96247382     0.19500
C4222       C  0.84461656  0.99902664  0.95632747     0.22200
C4223       C  0.84569181  0.03180266  0.96578775    -0.39800
C4224       C  0.83721990  0.02153741  0.98174504     0.21000
N4225       N  0.81683709  0.97771483  0.00281045    -0.33100
C4226       C  0.81586138  0.01411124  0.00634958    -0.10700
C4227       C  0.82931988  0.04269484  0.99354948    -0.29500
N4228       N  0.84934445  0.99937853  0.94071553    -0.46100
C4229       C  0.84204108  0.95906397  0.93697547    -0.05400
C4230       C  0.83330147  0.93342867  0.95028039    -0.22700
H4231       H  0.81868748  0.91731238  0.98291269     0.19100
H4232       H  0.85084823  0.06220688  0.96099167     0.17900
H4233       H  0.82840549  0.07236795  0.99248139     0.14200
H4234       H  0.82650464  0.90030538  0.95104513     0.14000
H4235       H  0.80492461  0.94947716  0.00964155     0.32200
H4236       H  0.85589083  0.02484489  0.93305651     0.34900
C4237       C  0.54996991  0.82476488  0.95566511     0.20500
C4238       C  0.55987052  0.80402369  0.96735091    -0.39300
C4239       C  0.54046477  0.79995555  0.98183744     0.19500
C4240       C  0.51310520  0.81527968  0.98450853     0.22200
C4241       C  0.50337394  0.83626005  0.97280000    -0.39800
C4242       C  0.52281126  0.84026993  0.95828185     0.21000
N4243       N  0.56496958  0.83323160  0.94101595    -0.33100
C4244       C  0.54764731  0.85471279  0.93416057    -0.10700
C4245       C  0.52072409  0.85927105  0.94459398    -0.29500
N4246       N  0.49421006  0.80201897  0.99854338    -0.46100
C4247       C  0.50876994  0.77713917  0.00464823    -0.05400
C4248       C  0.53878223  0.77636125  0.99476580    -0.22700
H4249       H  0.58018207  0.79080667  0.96518576     0.19100
H4250       H  0.48131842  0.84749236  0.97472171     0.17900
H4251       H  0.50408209  0.87663672  0.94277783     0.14200
H4252       H  0.55308752  0.75654038  0.99602003     0.14000
H4253       H  0.58683940  0.82599013  0.93619958     0.32200
H4254       H  0.46943324  0.80553456  0.00293478     0.34900
C4255       C  0.68567430  0.00101710  0.95254299     0.20500
C4256       C  0.69245676  0.02603074  0.96607196    -0.39300
C4257       C  0.70833341  0.01469902  0.97901187     0.19500
C4258       C  0.71598414  0.98068469  0.97841862     0.22200
C4259       C  0.71022139  0.95658722  0.96491207    -0.39800
C4260       C  0.69502807  0.96822298  0.95203744     0.21000
N4261       N  0.66560410  0.00095445  0.93938463    -0.33100
C4262       C  0.66176447  0.96743761  0.93061531    -0.10700
C4263       C  0.68111718  0.94738045  0.93801309    -0.29500
N4264       N  0.72937114  0.97500717  0.99218293    -0.46100
C4265       C  0.73238035  0.00679190  0.00160040    -0.05400
C4266       C  0.71865419  0.03185399  0.99391885    -0.22700
H4267       H  0.68476468  0.05142367  0.96661317     0.19100
H4268       H  0.71588641  0.92973856  0.96459878     0.17900
H4269       H  0.68141699  0.91854420  0.93447098     0.14200
H4270       H  0.71783532  0.05965064  0.99843611     0.14000
H4271       H  0.65167738  0.01963033  0.93728533     0.32200
H4272       H  0.73644439  0.95101056  0.99493222     0.34900
loop_ 
_geom_bond_atom_site_label_1 
_geom_bond_atom_site_label_2 
_geom_bond_distance 
_geom_bond_site_symmetry_2 
_ccdc_geom_bond_type 
C1            C2   1.536       .  S
C1            C7   1.520       .  S
C1            C5   1.551       .  S
C1          C335   1.517       .  S
C2            H9   1.085       .  S
C2            C3   1.376       .  D
C3            C4   1.550       .  S
C3         C1040   1.484       .  S
C4            C8   1.534       .  S
C4            C6   1.537       .  S
C4           H10   1.105       .  S
C5           H11   1.085       .  S
C5            C6   1.373       .  D
C6         C1058   1.486       .  S
C7           H12   1.072       .  S
C7            C8   1.348       .  D
C8           C56   1.477       .  S
C13          C14   1.549       .  S
C13          C19   1.524       .  S
C13          C17   1.552       .  S
C13         C338   1.533       .  S
C14          H21   1.086       .  S
C14          C15   1.377       .  D
C15          C16   1.553       .  S
C15        C1025   1.498       .  S
C16          C20   1.540       .  S
C16          C18   1.540       .  S
C16          H22   1.106       .  S
C17          H23   1.085       .  S
C17          C18   1.376       .  D
C18        C1007   1.489       .  S
C19          H24   1.072       .  S
C19          C20   1.350       .  D
C20          C47   1.490       .  S
C25          C26   1.538       .  S
C25          C31   1.510       .  S
C25          C29   1.545       .  S
C25         C326   1.512       .  S
C26          H33   1.086       .  S
C26          C27   1.376       .  D
C27          C28   1.548       .  S
C27         C968   1.475       .  S
C28          C32   1.547       .  S
C28          C30   1.543       .  S
C28          H34   1.111       .  S
C29          H35   1.086   1_455  S
C29          C30   1.370       .  D
C30         C986   1.485       .  S
C31          H36   1.071       .  S
C31          C32   1.346       .  D
C32          C52   1.477       .  S
Fe37         O53   2.079       .  S
Fe37         O43   2.079       .  S
Fe37         O50   2.086       .  S
Fe37         O42   2.095       .  S
Fe37         O48   1.954       .  S
Fe38         O41   2.074       .  S
Fe38         O45   2.089       .  S
Fe38         O49   2.075       .  S
Fe38         O54   2.081       .  S
Fe38         O48   1.964       .  S
Fe39         O57   2.086       .  S
Fe39         O44   2.087       .  S
Fe39         O51   2.087       .  S
Fe39         O40   2.087       .  S
Fe39         O48   1.956       .  S
O40          C47   1.270       .  A
O41          C55   1.268       .  A
O42          C47   1.271       .  A
O43          C46   1.275       .  A
O44          C56   1.276       .  A
O45          C58   1.274       .  A
C46         C281   1.519       .  S
C46          O51   1.276       .  A
O49          C52   1.268       .  A
O50          C52   1.273       .  A
O53          C58   1.273       .  A
O54          C56   1.274       .  A
C55         C305   1.521       .  S
C55          O57   1.272       .  A
C58         C293   1.523       .  S
C59          C60   1.421       .  A
C59          C64   1.409       .  A
C59        C1061   1.490       .  S
C60          C61   1.409       .  A
C60        C1022   1.494       .  S
C61        C1130   1.411       .  A
C61          H66   1.084       .  S
C62          C63   1.427       .  A
C62        C1129   1.414       .  A
C62         C935   1.499       .  S
C63        C1132   1.405       .  A
C63         C950   1.488       .  S
C64        C1131   1.407       .  A
C64          H65   1.084       .  S
C67          C68   1.546       .  S
C67          C73   1.518       .  S
C67          C71   1.549       .  S
C67         C244   1.531       .  S
C68          H75   1.086       .  S
C68          C69   1.367       .  D
C69          C70   1.539       .  S
C69         C914   1.481       .  S
C70          C74   1.546       .  S
C70          C72   1.551       .  S
C70          H76   1.111       .  S
C71          H77   1.085       .  S
C71          C72   1.383       .  D
C72         C953   1.492       .  S
C73          H78   1.075       .  S
C73          C74   1.351       .  D
C74         C112   1.485       .  S
C79          C80   1.545       .  S
C79          C85   1.509       .  S
C79          C83   1.545       .  S
C79         C256   1.518       .  S
C80          H87   1.086       .  S
C80          C81   1.377       .  D
C81          C82   1.546       .  S
C81         C896   1.486       .  S
C82          C86   1.541       .  S
C82          C84   1.545       .  S
C82          H88   1.109       .  S
C83          H89   1.085       .  S
C83          C84   1.378       .  D
C84         C878   1.484       .  S
C85          H90   1.067       .  S
C85          C86   1.343       .  D
C86         C124   1.479       .  S
C91          C92   1.558       .  S
C91          C97   1.522       .  S
C91          C95   1.538       .  S
C91         C253   1.526       .  S
C92          H99   1.086   1_545  S
C92          C93   1.375       .  D
C93          C94   1.537       .  S
C93         C932   1.493       .  S
C94          C98   1.529       .  S
C94          C96   1.544       .  S
C94         H100   1.104       .  S
C95         H101   1.085       .  S
C95          C96   1.381       .  D
C96         C860   1.485       .  S
C97         H102   1.072       .  S
C97          C98   1.349       .  D
C98         C121   1.483       .  S
Fe103       O119   2.096       .  S
Fe103       O109   2.081       .  S
Fe103       O116   2.070       .  S
Fe103       O108   2.092       .  S
Fe103       O114   1.941       .  S
Fe104       O107   2.097       .  S
Fe104       O111   2.075       .  S
Fe104       O115   2.104       .  S
Fe104       O120   2.066       .  S
Fe104       O114   1.949       .  S
Fe105       O123   2.079       .  S
Fe105       O110   2.092       .  S
Fe105       O117   2.094       .  S
Fe105       O106   2.074       .  S
Fe105       O114   1.943       .  S
O106        C113   1.272       .  A
O107        C121   1.275       .  A
O108        C113   1.277       .  A
O109        C112   1.269       .  A
O110        C122   1.276       .  A
O111        C124   1.269       .  A
C112        O117   1.275       .  A
C113        C199   1.517       .  S
O115        C118   1.277       .  A
O116        C118   1.267       .  A
C118        C211   1.520       .  S
O119        C124   1.278       .  A
O120        C122   1.269       .  A
C121        O123   1.272       .  A
C122        C223   1.512       .  S
C125        C126   1.423   1_655  A
C125        C130   1.407       .  A
C125        C989   1.502       .  S
C126        C127   1.408       .  A
C126       C1043   1.478       .  S
C127       C2264   1.406   1_455  A
C127        H132   1.084       .  S
C128        C129   1.421       .  A
C128       C2263   1.404       .  A
C128        C899   1.497       .  S
C129       C2266   1.407       .  A
C129        C863   1.477       .  S
C130       C2265   1.407       .  A
C130        H131   1.084       .  S
C133        C134   1.418       .  A
C133        C138   1.405       .  A
C133       C1004   1.493       .  S
C134        C135   1.398       .  A
C134        C971   1.475       .  S
C135        C136   1.403       .  A
C135        H140   1.083       .  S
C136        C137   1.424       .  A
C136        C917   1.499       .  S
C137        C138   1.410       .  A
C137        C881   1.478       .  S
C138        H139   1.084       .  S
C141        C142   1.543       .  S
C141        C145   1.543       .  S
C141       C2283   1.523       .  S
C141        C384   1.525       .  S
C142        H149   1.087       .  S
C142       C2279   1.366       .  D
C143        C144   1.541       .  S
C143       C2278   1.365   1_455  D
C143        C824   1.477       .  S
C144        C148   1.545       .  S
C144        C146   1.548       .  S
C144        H150   1.111       .  S
C145        H151   1.086       .  S
C145       C2282   1.379       .  D
C146       C2281   1.380   1_455  D
C146        C845   1.485       .  S
C147       C2277   1.521   1_455  S
C147       H2288   1.075       .  S
C147        C148   1.353       .  D
C148        C192   1.482       .  S
H152       C2283   1.075       .  S
C153        C154   1.556       .  S
C153        C159   1.520       .  S
C153        C157   1.536       .  S
C153        C393   1.522       .  S
C154        H161   1.085       .  S
C154        C155   1.382       .  D
C155        C156   1.538       .  S
C155        C791   1.496       .  S
C156        C160   1.527       .  S
C156        C158   1.542       .  S
C156        H162   1.105       .  S
C157        H163   1.086       .  S
C157        C158   1.375       .  D
C158        C809   1.474       .  S
C159        H164   1.068       .  S
C159        C160   1.348       .  D
C160        C196   1.482       .  S
C165        C166   1.545       .  S
C165        C169   1.550       .  S
C165       C1239   1.506   1_545  S
C165        C396   1.525       .  S
C166        H173   1.086       .  S
C166       C1235   1.377   1_545  D
C167        C168   1.539       .  S
C167       C1234   1.369       .  D
C167        C752   1.483       .  S
C168        C172   1.552       .  S
C168        C170   1.558       .  S
C168        H174   1.109       .  S
C169        H175   1.085       .  S
C169       C1238   1.383   1_545  D
C170       C1237   1.383       .  D
C170        C770   1.495       .  S
C171       C1233   1.508       .  S
C171       H1244   1.073       .  S
C171        C172   1.347       .  D
C172        C187   1.485       .  S
H176       C1239   1.069       .  S
Fe177       O193   2.076       .  S
Fe177       O183   2.064       .  S
Fe177       O190   2.074       .  S
Fe177       O182   2.076       .  S
Fe177       O188   1.948       .  S
Fe178       O181   2.094       .  S
Fe178       O185   2.093       .  S
Fe178       O189   2.098       .  S
Fe178       O194   2.086       .  S
Fe178       O188   1.954       .  S
Fe179       O197   2.086       .  S
Fe179       O184   2.085       .  S
Fe179       O191   2.101       .  S
Fe179       O180   2.095       .  S
Fe179       O188   1.966       .  S
O180        C187   1.272       .  A
O181        C195   1.278       .  A
O182        C187   1.271       .  A
O183        C186   1.269       .  A
O184        C196   1.271       .  A
O185        C198   1.275       .  A
C186        C339   1.520       .  S
C186        O191   1.275       .  A
O189        C192   1.275       .  A
O190        C192   1.268       .  A
O193        C198   1.272       .  A
O194        C196   1.274       .  A
C195        C363   1.524       .  S
C195        O197   1.274       .  A
C198        C351   1.524       .  S
C199        C200   1.535       .  S
C199        C205   1.520       .  S
C199        C203   1.555       .  S
C200        H207   1.086       .  S
C200        C201   1.370       .  D
C201        C202   1.547       .  S
C201        C734   1.475       .  S
C202        C206   1.540       .  S
C202        C204   1.544       .  S
C202        H208   1.106       .  S
C203        H209   1.085       .  S
C203        C204   1.376       .  D
C204        C716   1.498   1_545  S
C205        H210   1.073       .  S
C205        C206   1.348       .  D
C206        C245   1.482       .  S
C211        C212   1.543       .  S
C211        C217   1.510       .  S
C211        C215   1.543       .  S
C212        H219   1.086       .  S
C212        C213   1.377       .  D
C213        C214   1.550       .  S
C213        C680   1.492       .  S
C214        C218   1.555       .  S
C214        C216   1.550       .  S
C214        H220   1.111       .  S
C215        H221   1.086       .  S
C215        C216   1.373       .  D
C216        C698   1.484       .  S
C217        H222   1.067       .  S
C217        C218   1.347       .  D
C218        C250   1.490       .  S
C223        C224   1.533       .  S
C223        C229   1.517       .  S
C223        C227   1.549       .  S
C224        H231   1.085       .  S
C224        C225   1.376       .  D
C225        C226   1.551       .  S
C225        C665   1.486       .  S
C226        C230   1.537       .  S
C226        C228   1.540       .  S
C226        H232   1.105       .  S
C227        H233   1.085       .  S
C227        C228   1.373       .  D
C228        C647   1.486       .  S
C229        H234   1.069       .  S
C229        C230   1.348       .  D
C230        C254   1.483       .  S
Fe235       O240   2.081       .  S
Fe235      O2387   2.074       .  S
Fe235      O1309   2.104       .  S
Fe235      O2384   2.099   1_455  S
Fe235       O246   1.957       .  S
Fe236       O239   2.076       .  S
Fe236       O243   2.097       .  S
Fe236       O247   2.087       .  S
Fe236       O252   2.095       .  S
Fe236      O2382   1.961       .  S
Fe237       O242   2.086   1_455  S
Fe237       O249   2.079       .  S
Fe237       O238   2.092       .  S
Fe237      O2391   2.096   1_455  S
Fe237      O1314   1.951   1_445  S
O238        C245   1.272       .  A
O239       C1321   1.269       .  A
O240       C1313   1.269       .  A
O241      Fe1303   2.105   1_545  S
O241        C244   1.278       .  A
O242       C2390   1.274       .  A
O243        C256   1.277       .  A
C244        O249   1.276       .  A
C245       O1308   1.269   1_545  A
O246      Fe2372   1.962   1_455  S
O246      Fe1305   1.950       .  S
O247        C250   1.271       .  A
O248      Fe2371   2.099       .  S
O248        C250   1.276       .  A
O251      Fe2371   2.072       .  S
O251        C256   1.270       .  A
O252       C1322   1.276       .  A
C253        O255   1.278       .  A
C253       O1307   1.268   1_545  A
C254       O2378   1.275       .  A
C254       O1320   1.274       .  A
O255      Fe2373   2.105       .  S
C257        C258   1.416       .  A
C257        C262   1.404       .  A
C257        C842   1.478       .  S
C258        C259   1.403       .  A
C258        C788   1.483       .  S
C259        C260   1.405       .  A
C259        H264   1.084       .  S
C260        C261   1.421       .  A
C260        C737   1.483       .  S
C261        C262   1.404       .  A
C261        C644   1.488       .  S
C262        H263   1.084       .  S
C265        C266   1.422       .  A
C265        C270   1.404       .  A
C265        C806   1.477       .  S
C266        C267   1.406       .  A
C266        C755   1.500       .  S
C267        C268   1.408       .  A
C267        H272   1.084       .  S
C268        C269   1.421       .  A
C268        C662   1.476       .  S
C269        C270   1.403       .  A
C269        C701   1.498       .  S
C270        H271   1.084       .  S
C273        C274   1.422       .  A
C273        C278   1.410       .  A
C273        C773   1.487       .  S
C274        C275   1.406       .  A
C274        C827   1.492       .  S
C275        C276   1.399       .  A
C275        H280   1.084       .  S
C276        C277   1.420       .  A
C276        C683   1.483       .  S
C277        C278   1.410       .  A
C277        C719   1.493       .  S
C278        H279   1.084       .  S
C281        C282   1.548       .  S
C281        C287   1.521       .  S
C281        C285   1.539       .  S
C282        H289   1.085       .  S
C282        C283   1.373       .  D
C283        C284   1.544       .  S
C283        C608   1.489       .  S
C284        C288   1.543       .  S
C284        C286   1.550       .  S
C284        H290   1.107       .  S
C285        H291   1.086       .  S
C285        C286   1.372       .  D
C286        C626   1.482       .  S
C287        H292   1.071       .  S
C287        C288   1.349       .  D
C288        C332   1.485       .  S
C293        C294   1.546       .  S
C293        C299   1.509       .  S
C293        C297   1.546       .  S
C294        H301   1.087       .  S
C294        C295   1.371       .  D
C295        C296   1.549       .  S
C295        C593   1.494       .  S
C296        C300   1.560       .  S
C296        C298   1.553       .  S
C296        H302   1.110       .  S
C297        H303   1.085       .  S
C297        C298   1.380       .  D
C298        C572   1.490       .  S
C299        H304   1.072       .  S
C299        C300   1.345       .  D
C300        C327   1.493       .  S
C305        C306   1.554       .  S
C305        C311   1.520       .  S
C305        C309   1.536       .  S
C306        H313   1.085       .  S
C306        C307   1.375       .  D
C307        C308   1.540       .  S
C307        C539   1.492       .  S
C308        C312   1.544       .  S
C308        C310   1.551       .  S
C308        H314   1.108       .  S
C309        H315   1.086       .  S
C309        C310   1.373       .  D
C310        C557   1.482       .  S
C311        H316   1.071       .  S
C311        C312   1.350       .  D
C312        C336   1.487       .  S
Fe317      O1401   2.099   1_545  S
Fe317      O2459   2.059       .  S
Fe317      O1398   2.086   1_545  S
Fe317      O2458   2.104       .  S
Fe317      O3532   1.944   1_545  S
Fe318       O325   2.114       .  S
Fe318       O329   2.089       .  S
Fe318      O2457   2.076       .  S
Fe318      O2470   2.109       .  S
Fe318      O2464   1.963       .  S
Fe319       O331   2.082       .  S
Fe319       O320   2.085       .  S
Fe319      O1405   2.076   1_545  S
Fe319      O1392   2.074   1_545  S
Fe319      O1396   1.965   1_545  S
O320        C327   1.269       .  A
O321      Fe2454   2.081   1_455  S
O321        C335   1.272       .  A
O322      Fe2453   2.105   1_455  S
O322        C327   1.277       .  A
O323      Fe2453   2.067   1_455  S
O323        C326   1.270       .  A
O324      Fe1387   2.091       .  S
O324        C336   1.276       .  A
O325        C338   1.280       .  A
C326        O331   1.273       .  A
O328      Fe3521   1.954   1_455  S
O328      Fe2454   1.961   1_455  S
O328      Fe1387   1.967       .  S
O329        C332   1.271       .  A
O330      Fe1385   2.083       .  S
O330        C332   1.269       .  A
O333      Fe1385   2.073       .  S
O333        C338   1.272       .  A
O334      Fe2454   2.097   1_455  S
O334        C336   1.277       .  A
C335        O337   1.269       .  A
O337      Fe1387   2.074       .  S
C339        C340   1.545       .  S
C339        C345   1.511       .  S
C339        C343   1.545       .  S
C340        H347   1.085       .  S
C340       C1409   1.383       .  D
C341        C342   1.551       .  S
C341       C1408   1.378   1_545  D
C341        C503   1.491       .  S
C342        C346   1.557       .  S
C342        C344   1.548       .  S
C342        H348   1.111       .  S
C343        H349   1.087       .  S
C343       C1412   1.368       .  D
C344       C1411   1.376   1_545  D
C344        C518   1.491       .  S
C345        H350   1.072       .  S
C345       C1414   1.348       .  D
C346       C1413   1.345       .  D
C346        C390   1.490       .  S
C351        C352   1.540       .  S
C351        C357   1.526       .  S
C351        C355   1.551       .  S
C352        H359   1.086       .  S
C352       C2489   1.373       .  D
C353        C354   1.548       .  S
C353       C2488   1.373       .  D
C353        C464   1.481       .  S
C354        C358   1.536       .  S
C354        C356   1.540       .  S
C354        H360   1.105       .  S
C355        H361   1.085       .  S
C355       C2492   1.377   1_455  D
C356       C2491   1.375       .  D
C356        C482   1.489       .  S
C357        H362   1.075       .  S
C357       C2494   1.351   1_455  D
C358       C2493   1.352       .  D
C358        C385   1.484       .  S
C363        C364   1.540       .  S
C363        C369   1.519       .  S
C363        C367   1.556       .  S
C364        H371   1.086       .  S
C364        C365   1.378       .  D
C365        C366   1.544       .  S
C365        C449   1.479       .  S
C366        C370   1.526       .  S
C366        C368   1.537       .  S
C366        H372   1.106       .  S
C367        H373   1.085       .  S
C367        C368   1.380       .  D
C368        C431   1.493       .  S
C369        H374   1.068       .  S
C369        C370   1.346       .  D
C370        C394   1.481       .  S
Fe375       O391   2.084       .  S
Fe375       O381   2.091       .  S
Fe375       O388   2.095       .  S
Fe375       O380   2.085       .  S
Fe375       O386   1.958       .  S
Fe376       O379   2.080       .  S
Fe376       O383   2.097       .  S
Fe376       O387   2.089       .  S
Fe376       O392   2.089       .  S
Fe376       O386   1.967       .  S
Fe377       O395   2.089       .  S
Fe377       O382   2.083       .  S
Fe377       O389   2.081       .  S
Fe377       O378   2.087       .  S
Fe377       O386   1.953       .  S
O378        C385   1.270       .  A
O379        C393   1.269       .  A
O380        C385   1.271       .  A
O381        C384   1.274       .  A
O382        C394   1.274       .  A
O383        C396   1.277       .  A
C384        O389   1.277       .  A
O387        C390   1.270       .  A
O388        C390   1.275       .  A
O391        C396   1.273       .  A
O392        C394   1.274       .  A
C393        O395   1.274       .  A
C397        C398   1.420       .  A
C397        C402   1.409       .  A
C397        C536   1.489       .  S
C398        C399   1.408       .  A
C398        C629   1.490       .  S
C399        C400   1.407       .  A
C399        H404   1.084       .  S
C400        C401   1.421       .  A
C400        C428   1.491       .  S
C401        C402   1.409       .  A
C401        C467   1.492       .  S
C402        H403   1.084       .  S
C405        C406   1.420       .  A
C405        C410   1.409       .  A
C405        C590   1.504       .  S
C406        C407   1.406       .  A
C406        C554   1.477       .  S
C407        C408   1.405       .  A
C407        H412   1.084       .  S
C408        C409   1.425       .  A
C408        C521   1.507       .  S
C409        C410   1.413       .  A
C409        C446   1.481       .  S
C410        H411   1.084       .  S
C413        C414   1.421       .  A
C413        C418   1.405       .  A
C413        C575   1.485       .  S
C414        C415   1.405       .  A
C414        C611   1.483       .  S
C415        C416   1.400       .  A
C415        H420   1.084       .  S
C416        C417   1.417       .  A
C416        C500   1.485       .  S
C417        C418   1.405       .  A
C417        C485   1.479       .  S
C418        H419   1.084       .  S
C421        C426   1.382       .  A
C421        C422   1.400       .  A
C421        N427   1.340       .  A
C422        C423   1.400       .  A
C422        H433   1.083       .  S
C423        C432   1.372       .  A
C423        C424   1.381       .  A
C424        C425   1.410       .  A
C424        N430   1.350       .  A
C425        C426   1.410       .  A
C425        H434   1.082       .  S
C426        C429   1.386       .  A
N427        C428   1.356       .  A
N427        H437   1.044       .  S
C428        C429   1.400       .  A
C429        H435   1.082       .  S
N430        C431   1.362       .  A
N430        H438   1.044       .  S
C431        C432   1.400       .  A
C432        H436   1.082       .  S
C439        C444   1.386       .  A
C439        C440   1.402       .  A
C439        N445   1.341       .  A
C440        C441   1.399       .  A
C440        H451   1.083       .  S
C441        C450   1.374       .  A
C441        C442   1.381       .  A
C442        C443   1.404       .  A
C442        N448   1.344       .  A
C443        C444   1.405       .  A
C443        H452   1.082       .  S
C444        C447   1.381       .  A
N445        C446   1.356       .  A
N445        H455   1.045       .  S
C446        C447   1.396       .  A
C447        H453   1.082       .  S
N448        C449   1.358       .  A
N448        H456   1.044       .  S
C449        C450   1.396       .  A
C450        H454   1.082       .  S
C457        C462   1.384       .  A
C457        C458   1.406       .  A
C457        N463   1.342       .  A
C458        C459   1.404       .  A
C458       H2605   1.083       .  S
C459        C468   1.384       .  A
C459        C460   1.384       .  A
C460        C461   1.409       .  A
C460        N466   1.344       .  A
C461        C462   1.406       .  A
C461        H470   1.082       .  S
C462        C465   1.387       .  A
N463        C464   1.355       .  A
N463       H2609   1.043       .  S
C464        C465   1.396       .  A
C465        H471   1.082       .  S
N466        C467   1.360       .  A
N466        H474   1.045       .  S
C467        C468   1.397       .  A
C468        H472   1.082       .  S
H469       C2594   1.083       .  S
H473       N2599   1.042       .  S
C475        C480   1.383       .  A
C475        C476   1.398       .  A
C475        N481   1.336       .  A
C476        C477   1.395       .  A
C476        H487   1.083       .  S
C477        C486   1.368       .  A
C477        C478   1.382       .  A
C478       C2615   1.407       .  A
C478        N484   1.348       .  A
C479       C2614   1.408       .  A
C479       C2616   1.409       .  A
C479        H488   1.082   1_655  S
C480       C2615   1.408       .  A
C480       C2619   1.383       .  A
N481        C482   1.357       .  A
N481        H491   1.042       .  S
C482       C2619   1.403       .  A
C483       C2616   1.384   1_455  A
C483       C2618   1.402   1_455  A
C483        H489   1.082       .  S
N484        C485   1.357       .  A
N484        H492   1.044       .  S
C485        C486   1.392       .  A
C486        H490   1.081       .  S
C493        C498   1.384       .  A
C493        C494   1.408       .  A
C493        N499   1.346       .  A
C494        C495   1.407       .  A
C494       H1573   1.082   1_545  S
C495        C504   1.385       .  A
C495        C496   1.382       .  A
C496        C497   1.406       .  A
C496        N502   1.344       .  A
C497        C498   1.405       .  A
C497        H506   1.083       .  S
C498        C501   1.381       .  A
N499        C500   1.358       .  A
N499        H509   1.045       .  S
C500        C501   1.396       .  A
C501        H507   1.082       .  S
N502        C503   1.358       .  A
N502        H510   1.043       .  S
C503        C504   1.399       .  A
C504       H1576   1.082   1_545  S
H505       C1562   1.082       .  S
H508       C1572   1.082       .  S
C511        C516   1.383       .  A
C511        C512   1.409   1_545  A
C511       N1585   1.346   1_545  A
C512        C513   1.407   1_565  A
C512       H1591   1.082       .  S
C513        C522   1.387       .  A
C513        C514   1.381       .  A
C514        C515   1.411       .  A
C514        N520   1.347       .  A
C515        C516   1.409       .  A
C515        H524   1.082       .  S
C516        C519   1.389       .  A
N517       C1579   1.340       .  A
N517       C1586   1.357       .  A
N517        H527   1.045       .  S
C518        C519   1.399       .  A
C518       N1585   1.358   1_545  A
C519        H525   1.082       .  S
N520        C521   1.361       .  A
N520        H528   1.043       .  S
C521        C522   1.401       .  A
C522        H526   1.082       .  S
H523       C1580   1.082       .  S
C529        C534   1.383       .  A
C529       C2666   1.400       .  A
C529        N535   1.339       .  A
C530        C531   1.399       .  A
C530       C2665   1.400       .  A
C530        H541   1.083       .  S
C531        C540   1.373       .  A
C531       C2668   1.382       .  A
C532        C533   1.411       .  A
C532       C2667   1.383       .  A
C532       N2674   1.348       .  A
C533        C534   1.410       .  A
C533        H542   1.082       .  S
C534        C537   1.388       .  A
N535        C536   1.355       .  A
N535       H2681   1.044       .  S
C536        C537   1.400       .  A
C537        H543   1.082       .  S
N538        C539   1.362       .  A
N538       C2668   1.351   1_455  A
N538       H2682   1.044       .  S
C539        C540   1.397   1_455  A
C540        H544   1.082       .  S
H545       N2671   1.043       .  S
H546       N2674   1.044       .  S
C547        C552   1.385       .  A
C547        C548   1.404       .  A
C547        N553   1.342       .  A
C548       C1617   1.402       .  A
C548        H559   1.083       .  S
C549        C558   1.374       .  A
C549        C550   1.383       .  A
C549       C1616   1.402       .  A
C550        C551   1.406       .  A
C550        N556   1.348       .  A
C551       C1620   1.407       .  A
C551        H560   1.082       .  S
C552        C555   1.379       .  A
C552       C1619   1.402   1_545  A
N553        C554   1.356       .  A
N553        H563   1.045       .  S
C554        C555   1.394       .  A
C555        H561   1.082       .  S
N556        C557   1.357       .  A
N556        H564   1.044       .  S
C557        C558   1.394       .  A
C558        H562   1.078       .  S
C565        C570   1.382       .  A
C565       C2702   1.409       .  A
C565        N571   1.351       .  A
C566        C567   1.407       .  A
C566       C2701   1.406       .  A
C566        H577   1.082       .  S
C567        C576   1.382       .  A
C567       C2704   1.385       .  A
C568        C569   1.405       .  A
C568       C2703   1.385       .  A
C568        N574   1.347       .  A
C569        C570   1.403       .  A
C569        H578   1.083       .  S
C570        C573   1.376       .  A
N571        C572   1.359       .  A
N571       H2717   1.044       .  S
C572        C573   1.397       .  A
C573        H579   1.082       .  S
N574       C2711   1.356   1_455  A
N574        H582   1.045       .  S
C575        C576   1.398       .  A
C575       N2710   1.356       .  A
C576        H580   1.082       .  S
H581       N2707   1.045       .  S
C583        C588   1.382       .  A
C583        C584   1.411       .  A
C583        N589   1.346       .  A
C584        C585   1.408       .  A
C584        H595   1.083       .  S
C585        C594   1.391       .  A
C585        C586   1.383       .  A
C586        C587   1.409       .  A
C586        N592   1.346       .  A
C587        C588   1.407       .  A
C587        H596   1.082       .  S
C588        C591   1.388       .  A
N589        C590   1.361       .  A
N589        H599   1.044       .  S
C590        C591   1.399       .  A
C591        H597   1.082       .  S
N592        C593   1.358       .  A
N592        H600   1.045       .  S
C593        C594   1.398       .  A
C594        H598   1.082       .  S
C601        C606   1.382       .  A
C601       C1670   1.413       .  A
C601        N607   1.350       .  A
C602        C603   1.406       .  A
C602       C1669   1.407       .  A
C602        H613   1.082       .  S
C603        C612   1.381       .  A
C603       C1672   1.383       .  A
C604        C605   1.396       .  A
C604       C1671   1.383       .  A
C604       N1678   1.336       .  A
C605        C606   1.395       .  A
C605        H614   1.083       .  S
C606        C609   1.369       .  A
N607        C608   1.363       .  A
N607       H1685   1.044       .  S
C608        C609   1.395       .  A
C609        H615   1.081       .  S
N610        C611   1.354       .  A
N610       C1672   1.337       .  A
N610       H1686   1.042       .  S
C611        C612   1.398       .  A
C612        H616   1.082       .  S
H617       N1675   1.045       .  S
H618       N1678   1.043       .  S
C619        C624   1.384       .  A
C619        C620   1.404       .  A
C619        N625   1.343       .  A
C620        C621   1.403       .  A
C620        H631   1.083       .  S
C621        C630   1.381       .  A
C621        C622   1.384       .  A
C622        C623   1.410       .  A
C622        N628   1.347       .  A
C623        C624   1.408       .  A
C623        H632   1.082       .  S
C624        C627   1.388       .  A
N625        C626   1.355       .  A
N625        H635   1.044       .  S
C626        C627   1.397       .  A
C627        H633   1.082       .  S
N628        C629   1.360       .  A
N628        H636   1.045       .  S
C629        C630   1.395       .  A
C630        H634   1.082       .  S
C637        C642   1.383       .  A
C637        C638   1.399       .  A
C637        N643   1.340       .  A
C638        C639   1.399       .  A
C638        H649   1.083       .  S
C639        C648   1.371       .  A
C639       C2776   1.382   1_455  A
C640        C641   1.410       .  A
C640       C2775   1.382       .  A
C640        N646   1.348       .  A
C641       C2778   1.409       .  A
C641        H650   1.082       .  S
C642        C645   1.385       .  A
C642       C2777   1.409   1_455  A
N643        C644   1.356       .  A
N643        H653   1.045       .  S
C644        C645   1.400       .  A
C645       H2787   1.082       .  S
N646        C647   1.361       .  A
N646        H654   1.044       .  S
C647       C2784   1.396       .  A
C648       C2783   1.397   1_455  A
C648        H652   1.081       .  S
H651       C2781   1.082       .  S
C655        C660   1.386       .  A
C655        C656   1.402       .  A
C655        N661   1.342       .  A
C656        C657   1.400       .  A
C656        H667   1.083       .  S
C657        C658   1.381       .  A
C657       C1734   1.374       .  A
C658        C659   1.405       .  A
C658       N1732   1.345       .  A
C659        C660   1.405       .  A
C659        H668   1.082       .  S
C660        C663   1.380       .  A
N661        C662   1.355       .  A
N661        H671   1.045       .  S
C662        C663   1.396       .  A
C663        H669   1.082       .  S
N664        C665   1.359       .  A
N664       C1726   1.342   1_545  A
N664        H672   1.044       .  S
C665        C666   1.398   1_545  A
C666       C1725   1.375       .  A
C666        H670   1.081       .  S
C673        C674   1.406       .  A
C673       C2814   1.381       .  A
C673        N679   1.343       .  A
C674       C2811   1.405       .  A
C674        H685   1.083       .  S
C675        C684   1.381       .  A
C675        C676   1.385   1_655  A
C675       C2810   1.403       .  A
C676        C677   1.406       .  A
C676        N682   1.343       .  A
C677        C678   1.403   1_455  A
C677        H686   1.082       .  S
C678        C681   1.382       .  A
C678       C2809   1.382       .  A
N679        C680   1.358       .  A
N679        H689   1.043       .  S
C680       C2817   1.400       .  A
C681       C2816   1.398       .  A
C681        H687   1.082       .  S
N682        C683   1.357       .  A
N682        H690   1.045       .  S
C683        C684   1.396   1_455  A
C684       H2824   1.082       .  S
H688       C2820   1.082       .  S
C691        C696   1.384       .  A
C691        C692   1.406       .  A
C691        N697   1.344       .  A
C692        C693   1.404       .  A
C692        H703   1.082       .  S
C693        C702   1.383       .  A
C693        C694   1.382       .  A
C694        C695   1.409       .  A
C694        N700   1.346       .  A
C695        C696   1.407       .  A
C695        H704   1.082       .  S
C696        C699   1.387       .  A
N697        C698   1.357       .  A
N697        H707   1.045       .  S
C698        C699   1.397       .  A
C699        H705   1.082       .  S
N700        C701   1.359       .  A
N700        H708   1.042       .  S
C701        C702   1.398       .  A
C702        H706   1.082       .  S
C709        C714   1.380       .  A
C709        C710   1.416       .  A
C709        N715   1.352       .  A
C710       C1779   1.415       .  A
C710        H721   1.082       .  S
C711        C720   1.389       .  A
C711        C712   1.381       .  A
C711       C1778   1.409       .  A
C712        C713   1.398       .  A
C712        N718   1.335       .  A
C713       C1782   1.397       .  A
C713        H722   1.083       .  S
C714        C717   1.368       .  A
C714       C1781   1.395       .  A
N715        C716   1.365       .  A
N715        H725   1.044       .  S
C716        C717   1.398       .  A
C717        H723   1.080       .  S
N718        C719   1.355       .  A
N718        H726   1.041       .  S
C719        C720   1.401       .  A
C720        H724   1.082       .  S
C727        C732   1.385       .  A
C727        C728   1.403       .  A
C727        N733   1.347       .  A
C728        C729   1.404       .  A
C728        H739   1.082       .  S
C729        C738   1.375       .  A
C729        C730   1.385       .  A
C730        C731   1.403       .  A
C730        N736   1.346       .  A
C731        C732   1.403       .  A
C731        H740   1.083       .  S
C732        C735   1.374       .  A
N733        C734   1.354       .  A
N733        H743   1.044       .  S
C734        C735   1.394       .  A
C735        H741   1.080       .  S
N736        C737   1.355       .  A
N736        H744   1.045       .  S
C737        C738   1.398       .  A
C738        H742   1.082       .  S
C745        C750   1.384       .  A
C745        C746   1.406       .  A
C745        N751   1.350       .  A
C746        C747   1.408       .  A
C746       H1825   1.083       .  S
C747        C756   1.379       .  A
C747        C748   1.383       .  A
C748        C749   1.405       .  A
C748        N754   1.348       .  A
C749        C750   1.405       .  A
C749        H758   1.082       .  S
C750        C753   1.376       .  A
N751        C752   1.356       .  A
N751       H1829   1.045       .  S
C752        C753   1.396       .  A
C753        H759   1.083       .  S
N754        C755   1.358       .  A
N754        H762   1.044       .  S
C755        C756   1.402       .  A
C756        H760   1.081       .  S
H757       C1814   1.083       .  S
H761       N1819   1.044       .  S
C763        C768   1.381       .  A
C763        C764   1.406       .  A
C763        N769   1.346       .  A
C764        C765   1.406       .  A
C764        H775   1.083       .  S
C765        C774   1.380       .  A
C765        C766   1.385       .  A
C766        C767   1.407       .  A
C766        N772   1.348       .  A
C767        C768   1.406       .  A
C767       H1844   1.082       .  S
C768        C771   1.380       .  A
N769        C770   1.359       .  A
N769        H779   1.044       .  S
C770        C771   1.401       .  A
C771       H1845   1.082       .  S
N772        C773   1.357       .  A
N772        H780   1.045       .  S
C773        C774   1.399       .  A
C774        H778   1.083       .  S
H776       C1835   1.082   1_545  S
H777       C1839   1.082       .  S
C781        C786   1.383       .  A
C781        C782   1.399       .  A
C781        N787   1.339       .  A
C782        C783   1.399       .  A
C782        H793   1.083       .  S
C783        C792   1.368       .  A
C783        C784   1.381       .  A
C784        C785   1.409       .  A
C784        N790   1.350       .  A
C785        C786   1.409       .  A
C785        H794   1.082       .  S
C786        C789   1.385       .  A
N787        C788   1.354       .  A
N787        H797   1.043       .  S
C788        C789   1.398       .  A
C789        H795   1.082       .  S
N790        C791   1.361       .  A
N790        H798   1.044       .  S
C791        C792   1.402       .  A
C792        H796   1.080       .  S
C799        C804   1.387       .  A
C799        C800   1.402       .  A
C799        N805   1.341       .  A
C800        C801   1.399       .  A
C800        H811   1.083       .  S
C801        C810   1.374       .  A
C801        C802   1.382       .  A
C802        C803   1.402       .  A
C802        N808   1.342       .  A
C803        C804   1.402       .  A
C803        H812   1.082       .  S
C804        C807   1.378       .  A
N805        C806   1.355       .  A
N805        H815   1.045       .  S
C806        C807   1.394       .  A
C807        H813   1.082       .  S
N808        C809   1.356       .  A
N808        H816   1.045       .  S
C809        C810   1.395       .  A
C810        H814   1.082       .  S
C817        C822   1.385       .  A
C817        C818   1.403       .  A
C817        N823   1.339   1_455  A
C818        C819   1.399       .  A
C818       H2965   1.082   1_455  S
C819        C828   1.379       .  A
C819        C820   1.381       .  A
C820        C821   1.406       .  A
C820        N826   1.340       .  A
C821        C822   1.404       .  A
C821        H830   1.083       .  S
C822        C825   1.385       .  A
N823        C824   1.355   1_655  A
N823       H2969   1.045       .  S
C824        C825   1.396       .  A
C825        H831   1.082       .  S
N826        C827   1.358       .  A
N826        H834   1.040       .  S
C827        C828   1.397       .  A
C828        H832   1.082       .  S
H829       C2954   1.082       .  S
H833       N2959   1.045       .  S
C835        C840   1.384       .  A
C835        C836   1.409       .  A
C835        N841   1.347       .  A
C836        C837   1.408       .  A
C836        H847   1.082   1_455  S
C837        C846   1.387       .  A
C837        C838   1.383       .  A
C838        C839   1.401       .  A
C838        N844   1.339       .  A
C839        C840   1.399       .  A
C839        H848   1.083       .  S
C840        C843   1.375       .  A
N841        C842   1.358       .  A
N841        H851   1.045       .  S
C842        C843   1.392       .  A
C843        H849   1.083       .  S
N844        C845   1.355       .  A
N844        H852   1.042       .  S
C845        C846   1.399       .  A
C846        H850   1.082   1_455  S
C853        C858   1.381       .  A
C853        C854   1.404       .  A
C853        N859   1.342       .  A
C854        C855   1.403       .  A
C854        H865   1.083       .  S
C855        C864   1.378       .  A
C855        C856   1.386       .  A
C856       C2993   1.403       .  A
C856       N2998   1.344       .  A
C857       C2992   1.404       .  A
C857       C2994   1.401       .  A
C857        H866   1.082       .  S
C858        C861   1.377       .  A
C858       C2993   1.400       .  A
N859        C860   1.359       .  A
N859        H869   1.044       .  S
C860        C861   1.396       .  A
C861       H3003   1.082       .  S
N862       C2992   1.344       .  A
N862       C2999   1.354       .  A
N862        H870   1.045       .  S
C863        C864   1.397       .  A
C863       N2998   1.354       .  A
C864        H868   1.083       .  S
H867       C2997   1.082       .  S
C871        C876   1.381       .  A
C871        C872   1.406       .  A
C871        N877   1.345       .  A
C872        C873   1.406       .  A
C872        H883   1.082       .  S
C873        C882   1.383       .  A
C873        C874   1.386       .  A
C874        C875   1.401       .  A
C874        N880   1.340       .  A
C875        C876   1.399       .  A
C875        H884   1.083       .  S
C876        C879   1.374       .  A
N877        C878   1.359       .  A
N877        H887   1.044       .  S
C878        C879   1.397       .  A
C879        H885   1.082       .  S
N880        C881   1.355       .  A
N880        H888   1.045       .  S
C881        C882   1.397       .  A
C882        H886   1.082       .  S
C889        C894   1.384       .  A
C889       C3026   1.407       .  A
C889        N895   1.350       .  A
C890       C3025   1.409   1_455  A
C890       C3027   1.410       .  A
C890        H901   1.083       .  S
C891        C892   1.383       .  A
C891       C3026   1.408       .  A
C891       C3036   1.379       .  A
C892        C893   1.405       .  A
C892        N898   1.348       .  A
C893        C894   1.406       .  A
C893        H902   1.082       .  S
C894        C897   1.377       .  A
N895        C896   1.357       .  A
N895       H3041   1.044       .  S
C896        C897   1.397       .  A
C897        H903   1.082       .  S
N898        C899   1.357       .  A
N898        H906   1.045       .  S
C899       C3036   1.401       .  A
C900       C3027   1.380       .  A
C900       C3035   1.403   1_455  A
C900        H904   1.080       .  S
H905       N3031   1.045       .  S
C907        C912   1.384       .  A
C907        C908   1.405       .  A
C907        N913   1.342       .  A
C908        C909   1.402       .  A
C908        H919   1.082       .  S
C909        C918   1.381       .  A
C909        C910   1.380       .  A
C910        C911   1.407       .  A
C910        N916   1.342       .  A
C911        C912   1.405       .  A
C911        H920   1.083       .  S
C912        C915   1.385       .  A
N913        C914   1.357       .  A
N913        H923   1.041       .  S
C914        C915   1.396       .  A
C915        H921   1.082       .  S
N916        C917   1.359       .  A
N916        H924   1.041       .  S
C917        C918   1.399       .  A
C918        H922   1.082       .  S
C925        C930   1.381   1_565  A
C925        C926   1.415       .  A
C925        N931   1.352       .  A
C926        C927   1.413       .  A
C926        H937   1.082       .  S
C927        C936   1.392       .  A
C927        C928   1.380   1_565  A
C928        C929   1.397       .  A
C928        N934   1.336       .  A
C929        C930   1.397       .  A
C929        H938   1.083       .  S
C930        C933   1.368       .  A
N931        C932   1.364   1_565  A
N931        H941   1.044       .  S
C932        C933   1.396       .  A
C933        H939   1.082       .  S
N934        C935   1.354       .  A
N934        H942   1.039       .  S
C935        C936   1.405   1_545  A
C936       H2008   1.082       .  S
H940       C2004   1.082       .  S
C943        C948   1.385       .  A
C943        C944   1.412   1_545  A
C943        N949   1.349   1_545  A
C944        C945   1.409   1_565  A
C944        H955   1.082       .  S
C945        C954   1.390       .  A
C945        C946   1.382       .  A
C946        C947   1.404       .  A
C946        N952   1.341       .  A
C947        C948   1.403       .  A
C947        H956   1.083       .  S
C948        C951   1.381       .  A
N949        C950   1.359   1_565  A
N949        H959   1.044       .  S
C950        C951   1.396       .  A
C951        H957   1.083       .  S
N952        C953   1.357       .  A
N952        H960   1.042       .  S
C953        C954   1.400       .  A
C954        H958   1.082   1_545  S
C961        C966   1.384       .  A
C961        C962   1.401       .  A
C961        N967   1.339       .  A
C962        C963   1.400       .  A
C962        H973   1.083       .  S
C963        C972   1.377   1_556  A
C963        C964   1.385       .  A
C964        C965   1.405       .  A
C964        N970   1.342       .  A
C965        C966   1.402       .  A
C965        H974   1.083       .  S
C966        C969   1.380       .  A
N967        C968   1.355       .  A
N967        H977   1.044       .  S
C968        C969   1.397       .  A
C969        H975   1.082       .  S
N970        C971   1.356   1_556  A
N970        H978   1.045       .  S
C971        C972   1.393       .  A
C972        H976   1.083       .  S
C979        C984   1.384       .  A
C979        C980   1.407       .  A
C979        N985   1.344   1_655  A
C980        C981   1.405       .  A
C980        H991   1.082       .  S
C981        C990   1.384       .  A
C981        C982   1.382       .  A
C982        C983   1.409       .  A
C982       N3124   1.345       .  A
C983        C984   1.407       .  A
C983       H3128   1.083       .  S
C984        C987   1.387   1_655  A
N985        C986   1.357       .  A
N985        H995   1.045       .  S
C986        C987   1.397       .  A
C987        H993   1.082       .  S
N988       C3118   1.345       .  A
N988       C3125   1.360       .  A
N988        H996   1.043       .  S
C989        C990   1.399   1_554  A
C989       N3124   1.360   1_554  A
C990        H994   1.082   1_556  S
H992       C3119   1.083       .  S
C997       C1002   1.381       .  A
C997        C998   1.413       .  A
C997       N1003   1.353       .  A
C998        C999   1.414       .  A
C998       H1009   1.082       .  S
C999       C1008   1.389       .  A
C999       C1000   1.383       .  A
C1000      C1001   1.397       .  A
C1000      N1006   1.337       .  A
C1001      C1002   1.395       .  A
C1001      H1010   1.083       .  S
C1002      C1005   1.365       .  A
N1003      C1004   1.361   1_556  A
N1003      H1013   1.044       .  S
C1004      C1005   1.393   1_554  A
C1005      H1011   1.080       .  S
N1006      C1007   1.356       .  A
N1006      H1014   1.043       .  S
C1007      C1008   1.404       .  A
C1008      H1012   1.082       .  S
C1015      C1020   1.385       .  A
C1015      C1016   1.403       .  A
C1015      N1021   1.347   1_556  A
C1016      C1017   1.403       .  A
C1016      H1027   1.083       .  S
C1017      C1026   1.374       .  A
C1017      C1018   1.382       .  A
C1018      C1019   1.414       .  A
C1018      N1024   1.356       .  A
C1019      C1020   1.416       .  A
C1019      H1028   1.082       .  S
C1020      C1023   1.388       .  A
N1021      C1022   1.355       .  A
N1021      H1031   1.045       .  S
C1022      C1023   1.405   1_554  A
C1023      H1029   1.082       .  S
N1024      C1025   1.362       .  A
N1024      H1032   1.044       .  S
C1025      C1026   1.394       .  A
C1026      H1030   1.077       .  S
C1033      C1038   1.382       .  A
C1033      C1034   1.401       .  A
C1033      N1039   1.342       .  A
C1034      C1035   1.401       .  A
C1034      H1045   1.082       .  S
C1035      C1044   1.376       .  A
C1035      C1036   1.385       .  A
C1036      C1037   1.406       .  A
C1036      N1042   1.346   1_556  A
C1037      C1038   1.405       .  A
C1037      H1046   1.082   1_455  S
C1038      C1041   1.380       .  A
N1039      C1040   1.356       .  A
N1039      H1049   1.044       .  S
C1040      C1041   1.400       .  A
C1041      H1047   1.082       .  S
N1042      C1043   1.356       .  A
N1042      H1050   1.045   1_455  S
C1043      C1044   1.395   1_554  A
C1044      H1048   1.083       .  S
C1051      C1056   1.383       .  A
C1051      C1052   1.411       .  A
C1051      N1057   1.348       .  A
C1052      C1053   1.409       .  A
C1052      H1063   1.082       .  S
C1053      C1062   1.387       .  A
C1053      C1054   1.382       .  A
C1054      C1055   1.399       .  A
C1054      N1060   1.337       .  A
C1055      C1056   1.398       .  A
C1055      H1064   1.083       .  S
C1056      C1059   1.372       .  A
N1057      C1058   1.360       .  A
N1057      H1067   1.044       .  S
C1058      C1059   1.396       .  A
C1059      H1065   1.082       .  S
N1060      C1061   1.355   1_556  A
N1060      H1068   1.042       .  S
C1061      C1062   1.400   1_554  A
C1062      H1066   1.082       .  S
C1069      C1070   1.536       .  S
C1069      C1075   1.519       .  S
C1069      C1073   1.550       .  S
C1069      C1403   1.516       .  S
C1070      H1077   1.086       .  S
C1070      C1071   1.376       .  D
C1071      C1072   1.550       .  S
C1071      C2108   1.483       .  S
C1072      C1076   1.535       .  S
C1072      C1074   1.537       .  S
C1072      H1078   1.105       .  S
C1073      H1079   1.085   1_565  S
C1073      C1074   1.374       .  D
C1074      C2126   1.487       .  S
C1075      H1080   1.070       .  S
C1075      C1076   1.348       .  D
C1076      C1124   1.481       .  S
C1081      C1082   1.545       .  S
C1081      C1087   1.520       .  S
C1081      C1085   1.553       .  S
C1081      C1406   1.531       .  S
C1082      H1089   1.086       .  S
C1082      C1083   1.377       .  D
C1083      C1084   1.553       .  S
C1083      C2093   1.492       .  S
C1084      C1088   1.543       .  S
C1084      C1086   1.543       .  S
C1084      H1090   1.106       .  S
C1085      H1091   1.085       .  S
C1085      C1086   1.374       .  D
C1086      C2075   1.493       .  S
C1087      H1092   1.070       .  S
C1087      C1088   1.349       .  D
C1088      C1115   1.488       .  S
C1093      C1094   1.539       .  S
C1093      C1099   1.507       .  S
C1093      C1097   1.542       .  S
C1093      C1394   1.517       .  S
C1094      H1101   1.086       .  S
C1094      C1095   1.379       .  D
C1095      C1096   1.551       .  S
C1095      C2036   1.482       .  S
C1096      C1100   1.549       .  S
C1096      C1098   1.543       .  S
C1096      H1102   1.111       .  S
C1097      H1103   1.087   1_455  S
C1097      C1098   1.369       .  D
C1098      C2054   1.479       .  S
C1099      H1104   1.062       .  S
C1099      C1100   1.346       .  D
C1100      C1120   1.484       .  S
Fe1105     O1121   2.080       .  S
Fe1105     O1111   2.071       .  S
Fe1105     O1118   2.082       .  S
Fe1105     O1110   2.091       .  S
Fe1105     O1116   1.956       .  S
Fe1106     O1109   2.081       .  S
Fe1106     O1113   2.088       .  S
Fe1106     O1117   2.088       .  S
Fe1106     O1122   2.085       .  S
Fe1106     O1116   1.963       .  S
Fe1107     O1125   2.078       .  S
Fe1107     O1112   2.091       .  S
Fe1107     O1119   2.095       .  S
Fe1107     O1108   2.087       .  S
Fe1107     O1116   1.960       .  S
O1108      C1115   1.270       .  A
O1109      C1123   1.269       .  A
O1110      C1115   1.270       .  A
O1111      C1114   1.273       .  A
O1112      C1124   1.277       .  A
O1113      C1126   1.276       .  A
C1114      C1349   1.519       .  S
C1114      O1119   1.277       .  A
O1117      C1120   1.270       .  A
O1118      C1120   1.272       .  A
O1121      C1126   1.270       .  A
O1122      C1124   1.274       .  A
C1123      C1373   1.518       .  S
C1123      O1125   1.271       .  A
C1126      C1361   1.518       .  S
C1127      C1128   1.418       .  A
C1127      C1132   1.404       .  A
C1127      C2129   1.485       .  S
C1128      C1129   1.412       .  A
C1128      C2090   1.496       .  S
C1129      H1134   1.084       .  S
C1130      C1131   1.425       .  A
C1130      C2003   1.495       .  S
C1131      C2018   1.491       .  S
C1132      H1133   1.084       .  S
C1135      C1136   1.546       .  S
C1135      C1141   1.521       .  S
C1135      C1139   1.553       .  S
C1135      C1312   1.535       .  S
C1136      H1143   1.087       .  S
C1136      C1137   1.365       .  D
C1137      C1138   1.540       .  S
C1137      C1982   1.485       .  S
C1138      C1142   1.550       .  S
C1138      C1140   1.549       .  S
C1138      H1144   1.111       .  S
C1139      H1145   1.085       .  S
C1139      C1140   1.386       .  D
C1140      C2021   1.494       .  S
C1141      H1146   1.077       .  S
C1141      C1142   1.353       .  D
C1142      C1180   1.489       .  S
C1147      C1148   1.547       .  S
C1147      C1153   1.508       .  S
C1147      C1151   1.543       .  S
C1147      C1324   1.516       .  S
C1148      H1155   1.086       .  S
C1148      C1149   1.379       .  D
C1149      C1150   1.546       .  S
C1149      C1964   1.487       .  S
C1150      C1154   1.543       .  S
C1150      C1152   1.544       .  S
C1150      H1156   1.109       .  S
C1151      H1157   1.085       .  S
C1151      C1152   1.376       .  D
C1152      C1946   1.485       .  S
C1153      H1158   1.072       .  S
C1153      C1154   1.342       .  D
C1154      C1192   1.476       .  S
C1159      C1160   1.554       .  S
C1159      C1165   1.522       .  S
C1159      C1163   1.542       .  S
C1159      C1321   1.522       .  S
C1160      H1167   1.085       .  S
C1160      C1161   1.373       .  D
C1161      C1162   1.535       .  S
C1161      C2000   1.488       .  S
C1162      C1166   1.530       .  S
C1162      C1164   1.549       .  S
C1162      H1168   1.104       .  S
C1163      H1169   1.085       .  S
C1163      C1164   1.382       .  D
C1164      C1928   1.492       .  S
C1165      H1170   1.074       .  S
C1165      C1166   1.348       .  D
C1166      C1189   1.483       .  S
Fe1171     O1187   2.085       .  S
Fe1171     O1177   2.073       .  S
Fe1171     O1184   2.058       .  S
Fe1171     O1176   2.089       .  S
Fe1171     O1182   1.947       .  S
Fe1172     O1175   2.090       .  S
Fe1172     O1179   2.075       .  S
Fe1172     O1183   2.101       .  S
Fe1172     O1188   2.076       .  S
Fe1172     O1182   1.957       .  S
Fe1173     O1191   2.089       .  S
Fe1173     O1178   2.105       .  S
Fe1173     O1185   2.111       .  S
Fe1173     O1174   2.085       .  S
Fe1173     O1182   1.943       .  S
O1174      C1181   1.276       .  A
O1175      C1189   1.274       .  A
O1176      C1181   1.276       .  A
O1177      C1180   1.265       .  A
O1178      C1190   1.279       .  A
O1179      C1192   1.268       .  A
C1180      O1185   1.277       .  A
C1181      C1267   1.523       .  S
O1183      C1186   1.278       .  A
O1184      C1186   1.267       .  A
C1186      C1279   1.513       .  S
O1187      C1192   1.274       .  A
O1188      C1190   1.271       .  A
C1189      O1191   1.276       .  A
C1190      C1291   1.527       .  S
C1193      C1194   1.422   1_655  A
C1193      C1198   1.408       .  A
C1193      C2057   1.496       .  S
C1194      C1195   1.403       .  A
C1194      C2111   1.479       .  S
C1195      C3332   1.403   1_455  A
C1195      H1200   1.084       .  S
C1196      C3331   1.406       .  A
C1196      C1197   1.423       .  A
C1196      C1967   1.498       .  S
C1197      C3334   1.407       .  A
C1197      C1931   1.482       .  S
C1198      C3333   1.406       .  A
C1198      H1199   1.084       .  S
C1201      C1202   1.420       .  A
C1201      C1206   1.404       .  A
C1201      C2072   1.494       .  S
C1202      C1203   1.405       .  A
C1202      C2039   1.483       .  S
C1203      C1204   1.408       .  A
C1203      H1208   1.083       .  S
C1204      C1205   1.425       .  A
C1204      C1985   1.504       .  S
C1205      C1206   1.408       .  A
C1205      C1949   1.479       .  S
C1206      H1207   1.084       .  S
C1209      C1210   1.539       .  S
C1209      C3351   1.520       .  S
C1209      C1213   1.556       .  S
C1209      C1452   1.532       .  S
C1210      H1217   1.087       .  S
C1210      C3347   1.364       .  D
C1211      C1212   1.544       .  S
C1211      C3346   1.367   1_455  D
C1211      C1892   1.486       .  S
C1212      C1216   1.549       .  S
C1212      C1214   1.550       .  S
C1212      H1218   1.110       .  S
C1213      H1219   1.085       .  S
C1213      C3350   1.387       .  D
C1214      C3349   1.385   1_455  D
C1214      C1913   1.492       .  S
C1215      C3345   1.521   1_455  S
C1215      H3356   1.072   1_455  S
C1215      C1216   1.349       .  D
C1216      C1260   1.495       .  S
H1220      C3351   1.074       .  S
C1221      C1222   1.553       .  S
C1221      C1227   1.522       .  S
C1221      C1225   1.535       .  S
C1221      C1461   1.515       .  S
C1222      H1229   1.085       .  S
C1222      C1223   1.378       .  D
C1223      C1224   1.540       .  S
C1223      C1859   1.493       .  S
C1224      C1228   1.527       .  S
C1224      C1226   1.543       .  S
C1224      H1230   1.105       .  S
C1225      H1231   1.086       .  S
C1225      C1226   1.374       .  D
C1226      C1877   1.476       .  S
C1227      H1232   1.072       .  S
C1227      C1228   1.349       .  D
C1228      C1264   1.480       .  S
C1233      C1234   1.547       .  S
C1233      C1237   1.538       .  S
C1233      C1464   1.518       .  S
C1234      H1241   1.087       .  S
C1235      C1236   1.546       .  S
C1235      C1820   1.488       .  S
C1236      C1240   1.548       .  S
C1236      C1238   1.549       .  S
C1236      H1242   1.109       .  S
C1237      H1243   1.085       .  S
C1238      C1838   1.496       .  S
C1239      C1240   1.341       .  D
C1240      C1255   1.483       .  S
Fe1245     O1261   2.085       .  S
Fe1245     O1251   2.079       .  S
Fe1245     O1258   2.080       .  S
Fe1245     O1250   2.083       .  S
Fe1245     O1256   1.946       .  S
Fe1246     O1249   2.115       .  S
Fe1246     O1253   2.088       .  S
Fe1246     O1257   2.116       .  S
Fe1246     O1262   2.079       .  S
Fe1246     O1256   1.953       .  S
Fe1247     O1265   2.074       .  S
Fe1247     O1252   2.095       .  S
Fe1247     O1259   2.103       .  S
Fe1247     O1248   2.088       .  S
Fe1247     O1256   1.955       .  S
O1248      C1255   1.270       .  A
O1249      C1263   1.279       .  A
O1250      C1255   1.273       .  A
O1251      C1254   1.271       .  A
O1252      C1264   1.275       .  A
O1253      C1266   1.276       .  A
C1254      C1407   1.525       .  S
C1254      O1259   1.278       .  A
O1257      C1260   1.278       .  A
O1258      C1260   1.266       .  A
O1261      C1266   1.277       .  A
O1262      C1264   1.274       .  A
C1263      C1431   1.530       .  S
C1263      O1265   1.269       .  A
C1266      C1419   1.519       .  S
C1267      C1268   1.544       .  S
C1267      C1273   1.522       .  S
C1267      C1271   1.550       .  S
C1268      H1275   1.086       .  S
C1268      C1269   1.375       .  D
C1269      C1270   1.549       .  S
C1269      C1802   1.488       .  S
C1270      C1274   1.538       .  S
C1270      C1272   1.540       .  S
C1270      H1276   1.107       .  S
C1271      H1277   1.085       .  S
C1271      C1272   1.372       .  D
C1272      C1784   1.487       .  S
C1273      H1278   1.075       .  S
C1273      C1274   1.350       .  D
C1274      C1313   1.479       .  S
C1279      C1280   1.541       .  S
C1279      C1285   1.510       .  S
C1279      C1283   1.541       .  S
C1280      H1287   1.086       .  S
C1280      C1281   1.376       .  D
C1281      C1282   1.542       .  S
C1281      C1748   1.481       .  S
C1282      C1286   1.550       .  S
C1282      C1284   1.549       .  S
C1282      H1288   1.111       .  S
C1283      H1289   1.086       .  S
C1283      C1284   1.372       .  D
C1284      C1766   1.483       .  S
C1285      H1290   1.071       .  S
C1285      C1286   1.346       .  D
C1286      C1318   1.479       .  S
C1291      C1292   1.538       .  S
C1291      C1297   1.521       .  S
C1291      C1295   1.557       .  S
C1292      H1299   1.085       .  S
C1292      C1293   1.377       .  D
C1293      C1294   1.547       .  S
C1293      C1733   1.484       .  S
C1294      C1298   1.535       .  S
C1294      C1296   1.538       .  S
C1294      H1300   1.104       .  S
C1295      H1301   1.085       .  S
C1295      C1296   1.380       .  D
C1296      C1715   1.499       .  S
C1297      H1302   1.073       .  S
C1297      C1298   1.348       .  D
C1298      C1322   1.484       .  S
Fe1303     O3455   2.072       .  S
Fe1303     O3452   2.104   1_455  S
Fe1303     O1308   2.079       .  S
Fe1303     O1314   1.952   1_455  S
Fe1304     O1307   2.068       .  S
Fe1304     O1311   2.096       .  S
Fe1304     O1315   2.071       .  S
Fe1304     O1320   2.090   1_565  S
Fe1304     O3450   1.958       .  S
Fe1305     O3459   2.085   1_455  S
Fe1305     O1310   2.088       .  S
Fe1305     O1317   2.084       .  S
Fe1305     O1306   2.082       .  S
O1306      C1313   1.270       .  A
O1309      C1312   1.277       .  A
O1310      C3458   1.275   1_455  A
O1311      C1324   1.277       .  A
C1312      O1317   1.278       .  A
O1314     Fe3440   1.958       .  S
O1315      C1318   1.267       .  A
O1316     Fe3439   2.096       .  S
O1316      C1318   1.277       .  A
O1319     Fe3439   2.070       .  S
O1319      C1324   1.268       .  A
C1321      O1323   1.273       .  A
C1322      O3446   1.275       .  A
O1323     Fe3441   2.088       .  S
C1325      C1326   1.423       .  A
C1325      C1330   1.402       .  A
C1325      C1910   1.483       .  S
C1326      C1327   1.408       .  A
C1326      C1856   1.490       .  S
C1327      C1328   1.407       .  A
C1327      H1332   1.084       .  S
C1328      C1329   1.419       .  A
C1328      C1805   1.486       .  S
C1329      C1330   1.402       .  A
C1329      C1712   1.485       .  S
C1330      H1331   1.084       .  S
C1333      C1334   1.423       .  A
C1333      C1338   1.407       .  A
C1333      C1874   1.478       .  S
C1334      C1335   1.404       .  A
C1334      C1823   1.500       .  S
C1335      C1336   1.406       .  A
C1335      H1340   1.084       .  S
C1336      C1337   1.419       .  A
C1336      C1730   1.473       .  S
C1337      C1338   1.404       .  A
C1337      C1769   1.496       .  S
C1338      H1339   1.084       .  S
C1341      C1342   1.425       .  A
C1341      C1346   1.413       .  A
C1341      C1841   1.489       .  S
C1342      C1343   1.405       .  A
C1342      C1895   1.495       .  S
C1343      C1344   1.401       .  A
C1343      H1348   1.084       .  S
C1344      C1345   1.418       .  A
C1344      C1751   1.484       .  S
C1345      C1346   1.409       .  A
C1345      C1787   1.491       .  S
C1346      H1347   1.084       .  S
C1349      C1350   1.549       .  S
C1349      C1355   1.521       .  S
C1349      C1353   1.540       .  S
C1350      H1357   1.085       .  S
C1350      C1351   1.376       .  D
C1351      C1352   1.537       .  S
C1351      C1676   1.478       .  S
C1352      C1356   1.534       .  S
C1352      C1354   1.547       .  S
C1352      H1358   1.108       .  S
C1353      H1359   1.086       .  S
C1353      C1354   1.372       .  D
C1354      C1694   1.482       .  S
C1355      H1360   1.070       .  S
C1355      C1356   1.347       .  D
C1356      C1400   1.479       .  S
C1361      C1362   1.552       .  S
C1361      C1367   1.512       .  S
C1361      C1365   1.539       .  S
C1362      H1369   1.085       .  S
C1362      C1363   1.380       .  D
C1363      C1364   1.553       .  S
C1363      C1661   1.500       .  S
C1364      C1368   1.539       .  S
C1364      C1366   1.545       .  S
C1364      H1370   1.105       .  S
C1365      H1371   1.086       .  S
C1365      C1366   1.371       .  D
C1366      C1640   1.479       .  S
C1367      H1372   1.061       .  S
C1367      C1368   1.344       .  D
C1368      C1395   1.483       .  S
C1373      C1374   1.549       .  S
C1373      C1379   1.517       .  S
C1373      C1377   1.534       .  S
C1374      H1381   1.085       .  S
C1374      C1375   1.378       .  D
C1375      C1376   1.539       .  S
C1375      C1607   1.487       .  S
C1376      C1380   1.536       .  S
C1376      C1378   1.548       .  S
C1376      H1382   1.107       .  S
C1377      H1383   1.086       .  S
C1377      C1378   1.374       .  D
C1378      C1625   1.481       .  S
C1379      H1384   1.070       .  S
C1379      C1380   1.347       .  D
C1380      C1404   1.476       .  S
Fe1385     O3527   2.064       .  S
Fe1385     O3526   2.070       .  S
Fe1385     O2464   1.963       .  S
Fe1386     O3525   2.076       .  S
Fe1386     O1393   2.089       .  S
Fe1386     O1397   2.078       .  S
Fe1386     O3538   2.082       .  S
Fe1386     O3532   1.953       .  S
Fe1387     O1399   2.094       .  S
Fe1387     O1388   2.080       .  S
O1388      C1395   1.269       .  A
O1389     Fe3522   2.076   1_455  S
O1389      C1403   1.270       .  A
O1390     Fe3521   2.089   1_455  S
O1390      C1395   1.273       .  A
O1391     Fe3521   2.064   1_455  S
O1391      C1394   1.269       .  A
O1392      C1404   1.272       .  A
O1393      C1406   1.276       .  A
C1394      O1399   1.275       .  A
O1396     Fe2453   1.951   1_465  S
O1396     Fe3522   1.958   1_455  S
O1397      C1400   1.270       .  A
O1398      C1400   1.271       .  A
O1401      C1406   1.278       .  A
O1402     Fe3522   2.090   1_455  S
O1402      C1404   1.276       .  A
C1403      O1405   1.268       .  A
C1407      C1408   1.543       .  S
C1407      C1413   1.508   1_565  S
C1407      C1411   1.548       .  S
C1408      H1415   1.086       .  S
C1409      C1410   1.549       .  S
C1409      C1571   1.486       .  S
C1410      C1414   1.542       .  S
C1410      C1412   1.541       .  S
C1410      H1416   1.110       .  S
C1411      H1417   1.086       .  S
C1412      C1586   1.482       .  S
C1413      H1418   1.068   1_545  S
C1414      C1458   1.478       .  S
C1419      C1420   1.538       .  S
C1419      C1425   1.517   1_455  S
C1419      C1423   1.553       .  S
C1420      H1427   1.086       .  S
C1420      C3557   1.372   1_455  D
C1421      C1422   1.549       .  S
C1421      C3556   1.371       .  D
C1421      C1532   1.479       .  S
C1422      C1426   1.536       .  S
C1422      C1424   1.541       .  S
C1422      H1428   1.106       .  S
C1423      H1429   1.085       .  S
C1423      C3560   1.381   1_455  D
C1424      C3559   1.381       .  D
C1424      C1550   1.491       .  S
C1425      H1430   1.069   1_655  S
C1425      C3562   1.345       .  D
C1426      C3561   1.345       .  D
C1426      C1453   1.477       .  S
C1431      C1432   1.544       .  S
C1431      C1437   1.520       .  S
C1431      C1435   1.556       .  S
C1432      H1439   1.085       .  S
C1432      C1433   1.382       .  D
C1433      C1434   1.545       .  S
C1433      C1517   1.489       .  S
C1434      C1438   1.531       .  S
C1434      C1436   1.537       .  S
C1434      H1440   1.106       .  S
C1435      H1441   1.085       .  S
C1435      C1436   1.378       .  D
C1436      C1499   1.494       .  S
C1437      H1442   1.072       .  S
C1437      C1438   1.349       .  D
C1438      C1462   1.484       .  S
Fe1443     O1459   2.057       .  S
Fe1443     O1449   2.081       .  S
Fe1443     O1456   2.074       .  S
Fe1443     O1448   2.081       .  S
Fe1443     O1454   1.953       .  S
Fe1444     O1447   2.075       .  S
Fe1444     O1451   2.104       .  S
Fe1444     O1455   2.081       .  S
Fe1444     O1460   2.091       .  S
Fe1444     O1454   1.965       .  S
Fe1445     O1463   2.076       .  S
Fe1445     O1450   2.088       .  S
Fe1445     O1457   2.095       .  S
Fe1445     O1446   2.080       .  S
Fe1445     O1454   1.953       .  S
O1446      C1453   1.269       .  A
O1447      C1461   1.269       .  A
O1448      C1453   1.271       .  A
O1449      C1452   1.271       .  A
O1450      C1462   1.276       .  A
O1451      C1464   1.279       .  A
C1452      O1457   1.279       .  A
O1455      C1458   1.267       .  A
O1456      C1458   1.269       .  A
O1459      C1464   1.271       .  A
O1460      C1462   1.275       .  A
C1461      O1463   1.272       .  A
C1465      C1466   1.417       .  A
C1465      C1470   1.404       .  A
C1465      C1604   1.478       .  S
C1466      C1467   1.408       .  A
C1466      C1697   1.491       .  S
C1467      C1468   1.409       .  A
C1467      H1472   1.084       .  S
C1468      C1469   1.422       .  A
C1468      C1496   1.489       .  S
C1469      C1470   1.403       .  A
C1469      C1535   1.491       .  S
C1470      H1471   1.084       .  S
C1473      C1474   1.421       .  A
C1473      C1478   1.409       .  A
C1473      C1658   1.495       .  S
C1474      C1475   1.402       .  A
C1474      C1622   1.485       .  S
C1475      C1476   1.405       .  A
C1475      H1480   1.084       .  S
C1476      C1477   1.422       .  A
C1476      C1589   1.495       .  S
C1477      C1478   1.412       .  A
C1477      C1514   1.488       .  S
C1478      H1479   1.084       .  S
C1481      C1482   1.418       .  A
C1481      C1486   1.402       .  A
C1481      C1643   1.477       .  S
C1482      C1483   1.404       .  A
C1482      C1679   1.485       .  S
C1483      C1484   1.405       .  A
C1483      H1488   1.084       .  S
C1484      C1485   1.418       .  A
C1484      C1568   1.478       .  S
C1485      C1486   1.401       .  A
C1485      C1553   1.482       .  S
C1486      H1487   1.084       .  S
C1489      C1494   1.383       .  A
C1489      C1490   1.401       .  A
C1489      N1495   1.341       .  A
C1490      C1491   1.400       .  A
C1490      H1501   1.083       .  S
C1491      C1500   1.371       .  A
C1491      C1492   1.380       .  A
C1492      C1493   1.409       .  A
C1492      N1498   1.349       .  A
C1493      C1494   1.409       .  A
C1493      H1502   1.082       .  S
C1494      C1497   1.385       .  A
N1495      C1496   1.357       .  A
N1495      H1505   1.045       .  S
C1496      C1497   1.400       .  A
C1497      H1503   1.082       .  S
N1498      C1499   1.362       .  A
N1498      H1506   1.044       .  S
C1499      C1500   1.400       .  A
C1500      H1504   1.081       .  S
C1507      C1512   1.384       .  A
C1507      C1508   1.404       .  A
C1507      N1513   1.342       .  A
C1508      C1509   1.402       .  A
C1508      H1519   1.082       .  S
C1509      C1518   1.377       .  A
C1509      C1510   1.381       .  A
C1510      C1511   1.407       .  A
C1510      N1516   1.347       .  A
C1511      C1512   1.407       .  A
C1511      H1520   1.082       .  S
C1512      C1515   1.385       .  A
N1513      C1514   1.358       .  A
N1513      H1523   1.044       .  S
C1514      C1515   1.398       .  A
C1515      H1521   1.082       .  S
N1516      C1517   1.359       .  A
N1516      H1524   1.044       .  S
C1517      C1518   1.399       .  A
C1518      H1522   1.082       .  S
C1525      C1530   1.384       .  A
C1525      C1526   1.405       .  A
C1525      N1531   1.340       .  A
C1526      C1527   1.403       .  A
C1526      H3673   1.083       .  S
C1527      C1536   1.384       .  A
C1527      C1528   1.384       .  A
C1528      C1529   1.407       .  A
C1528      N1534   1.342       .  A
C1529      C1530   1.403       .  A
C1529      H1538   1.083       .  S
C1530      C1533   1.386       .  A
N1531      C1532   1.355       .  A
N1531      H3677   1.043       .  S
C1532      C1533   1.395       .  A
C1533      H1539   1.082       .  S
N1534      C1535   1.358       .  A
N1534      H1542   1.044       .  S
C1535      C1536   1.397       .  A
C1536      H1540   1.082       .  S
H1537      C3662   1.083       .  S
H1541      N3667   1.044       .  S
C1543      C1548   1.381       .  A
C1543      C1544   1.401       .  A
C1543      N1549   1.337       .  A
C1544      C1545   1.398       .  A
C1544      H1555   1.083       .  S
C1545      C1554   1.372       .  A
C1545      C1546   1.383       .  A
C1546      C3683   1.407       .  A
C1546      N1552   1.346       .  A
C1547      C3682   1.410       .  A
C1547      C3684   1.410       .  A
C1547      H1556   1.082   1_655  S
C1548      C3683   1.406       .  A
C1548      C3687   1.383       .  A
N1549      C1550   1.359       .  A
N1549      H1559   1.042       .  S
C1550      C3687   1.402       .  A
C1551      C3684   1.387       .  A
C1551      C3686   1.404       .  A
C1551      H1557   1.082   1_655  S
N1552      C1553   1.357       .  A
N1552      H1560   1.044       .  S
C1553      C1554   1.394       .  A
C1554      H1558   1.081       .  S
C1561      C1566   1.383       .  A
C1561      C1562   1.407       .  A
C1561      N1567   1.343       .  A
C1562      C1563   1.404       .  A
C1563      C1572   1.384       .  A
C1563      C1564   1.382       .  A
C1564      C1565   1.403       .  A
C1564      N1570   1.339       .  A
C1565      C1566   1.400       .  A
C1565      H1574   1.081       .  S
C1566      C1569   1.378       .  A
N1567      C1568   1.357       .  A
N1567      H1577   1.045       .  S
C1568      C1569   1.394       .  A
C1569      H1575   1.082       .  S
N1570      C1571   1.358       .  A
N1570      H1578   1.044       .  S
C1571      C1572   1.398       .  A
C1579      C1584   1.384       .  A
C1579      C1580   1.405       .  A
C1580      C1581   1.402       .  A
C1581      C1590   1.383       .  A
C1581      C1582   1.382       .  A
C1582      C1583   1.407       .  A
C1582      N1588   1.342       .  A
C1583      C1584   1.404       .  A
C1583      H1592   1.083       .  S
C1584      C1587   1.386       .  A
N1585      H1595   1.045       .  S
C1586      C1587   1.396       .  A
C1587      H1593   1.082       .  S
N1588      C1589   1.359       .  A
N1588      H1596   1.043       .  S
C1589      C1590   1.397       .  A
C1590      H1594   1.082       .  S
C1597      C1602   1.384       .  A
C1597      C3734   1.400       .  A
C1597      N1603   1.340       .  A
C1598      C3733   1.402       .  A
C1598      C1599   1.402       .  A
C1598      H1609   1.083       .  S
C1599      C1608   1.375       .  A
C1599      C3736   1.383       .  A
C1600      C3735   1.382       .  A
C1600      C1601   1.406       .  A
C1600      N3742   1.346       .  A
C1601      C1602   1.405       .  A
C1601      H1610   1.082       .  S
C1602      C1605   1.382       .  A
N1603      C1604   1.355       .  A
N1603      H3749   1.045       .  S
C1604      C1605   1.396       .  A
C1605      H1611   1.082       .  S
N1606      C3736   1.346   1_455  A
N1606      C1607   1.359       .  A
N1606      H3750   1.044       .  S
C1607      C1608   1.399   1_455  A
C1608      H1612   1.082       .  S
H1613      N3739   1.044       .  S
H1614      N3742   1.044       .  S
C1615      C1620   1.385       .  A
C1615      C1616   1.403       .  A
C1615      N1621   1.345       .  A
C1616      H1627   1.083       .  S
C1617      C1626   1.379   1_545  A
C1617      C1618   1.383   1_545  A
C1618      C1619   1.403       .  A
C1618      N1624   1.342       .  A
C1619      H1628   1.082       .  S
C1620      C1623   1.380       .  A
N1621      C1622   1.355       .  A
N1621      H1631   1.045       .  S
C1622      C1623   1.400       .  A
C1623      H1629   1.082       .  S
N1624      C1625   1.357       .  A
N1624      H1632   1.044       .  S
C1625      C1626   1.397       .  A
C1626      H1630   1.082   1_565  S
C1633      C1638   1.382       .  A
C1633      C3770   1.404   1_455  A
C1633      N1639   1.347       .  A
C1634      C3769   1.404       .  A
C1634      C1635   1.405       .  A
C1634      H1645   1.082       .  S
C1635      C1644   1.378       .  A
C1635      C3772   1.385       .  A
C1636      C3771   1.385   1_455  A
C1636      C1637   1.399       .  A
C1636      N1642   1.342       .  A
C1637      C1638   1.399       .  A
C1637      H1646   1.083       .  S
C1638      C1641   1.369       .  A
N1639      C1640   1.357       .  A
N1639      H3785   1.044       .  S
C1640      C1641   1.393       .  A
C1641      H1647   1.076       .  S
N1642      C3779   1.353   1_455  A
N1642      H1650   1.045       .  S
C1643      C1644   1.396       .  A
C1643      N3778   1.355       .  A
C1644      H1648   1.082       .  S
H1649      N3775   1.044       .  S
C1651      C1656   1.381       .  A
C1651      C1652   1.416       .  A
C1651      N1657   1.356       .  A
C1652      C1653   1.418       .  A
C1652      H1663   1.082       .  S
C1653      C1662   1.393       .  A
C1653      C1654   1.382       .  A
C1654      C1655   1.396       .  A
C1654      N1660   1.337       .  A
C1655      C1656   1.394       .  A
C1655      H1664   1.083       .  S
C1656      C1659   1.364       .  A
N1657      C1658   1.363       .  A
N1657      H1667   1.045       .  S
C1658      C1659   1.393       .  A
C1659      H1665   1.081       .  S
N1660      C1661   1.355       .  A
N1660      H1668   1.042       .  S
C1661      C1662   1.409       .  A
C1662      H1666   1.082       .  S
C1669      C1674   1.383       .  A
C1669      N1675   1.347   1_545  A
C1670      C1671   1.411       .  A
C1670      H1681   1.082       .  S
C1671      C1680   1.389       .  A
C1672      C1673   1.397       .  A
C1673      C1674   1.397       .  A
C1673      H1682   1.083       .  S
C1674      C1677   1.368       .  A
N1675      C1676   1.358       .  A
C1676      C1677   1.395   1_565  A
C1677      H1683   1.082       .  S
N1678      C1679   1.352       .  A
C1679      C1680   1.401       .  A
C1680      H1684   1.082       .  S
C1687      C1692   1.384       .  A
C1687      C1688   1.405       .  A
C1687      N1693   1.344       .  A
C1688      C1689   1.404       .  A
C1688      H1699   1.083       .  S
C1689      C1698   1.382       .  A
C1689      C1690   1.383       .  A
C1690      C1691   1.409       .  A
C1690      N1696   1.346       .  A
C1691      C1692   1.407       .  A
C1691      H1700   1.082       .  S
C1692      C1695   1.387       .  A
N1693      C1694   1.355       .  A
N1693      H1703   1.044       .  S
C1694      C1695   1.396       .  A
C1695      H1701   1.082       .  S
N1696      C1697   1.360       .  A
N1696      H1704   1.045       .  S
C1697      C1698   1.396       .  A
C1698      H1702   1.082       .  S
C1705      C1710   1.383       .  A
C1705      C1706   1.397       .  A
C1705      N1711   1.337       .  A
C1706      C1707   1.397       .  A
C1706      H1717   1.083       .  S
C1707      C1716   1.368       .  A
C1707      C3844   1.381       .  A
C1708      C3843   1.381       .  A
C1708      C1709   1.411       .  A
C1708      N1714   1.350       .  A
C1709      C3846   1.409       .  A
C1709      H1718   1.082       .  S
C1710      C3845   1.410       .  A
C1710      C1713   1.386       .  A
N1711      C1712   1.353       .  A
N1711      H1721   1.043       .  S
C1712      C1713   1.399       .  A
C1713      H3855   1.082       .  S
N1714      C1715   1.362       .  A
N1714      H1722   1.044       .  S
C1715      C3852   1.402       .  A
C1716      C3851   1.399       .  A
C1716      H1720   1.080       .  S
H1719      C3849   1.082       .  S
C1723      C1728   1.385       .  A
C1723      C1724   1.402       .  A
C1723      N1729   1.341       .  A
C1724      C1725   1.400       .  A
C1724      H1735   1.082       .  S
C1725      C1726   1.382       .  A
C1726      C1727   1.404       .  A
C1727      C1728   1.403       .  A
C1727      H1736   1.083       .  S
C1728      C1731   1.380       .  A
N1729      C1730   1.355       .  A
N1729      H1739   1.045       .  S
C1730      C1731   1.396       .  A
C1731      H1737   1.083       .  S
N1732      C1733   1.359       .  A
N1732      H1740   1.044       .  S
C1733      C1734   1.397       .  A
C1734      H1738   1.082       .  S
C1741      C3882   1.383       .  A
C1741      C1742   1.406       .  A
C1741      N1747   1.342       .  A
C1742      C3879   1.404       .  A
C1742      H1753   1.083       .  S
C1743      C3878   1.403   1_455  A
C1743      C1752   1.381       .  A
C1743      C1744   1.384       .  A
C1744      C1745   1.405       .  A
C1744      N1750   1.343       .  A
C1745      C1746   1.403       .  A
C1745      H1754   1.082       .  S
C1746      C3877   1.383   1_455  A
C1746      C1749   1.380   1_455  A
N1747      C1748   1.358       .  A
N1747      H1757   1.044       .  S
C1748      C3885   1.395       .  A
C1749      C3884   1.396       .  A
C1749      H1755   1.082   1_655  S
N1750      C1751   1.357       .  A
N1750      H1758   1.045       .  S
C1751      C1752   1.396       .  A
C1752      H3892   1.082   1_455  S
H1756      C3888   1.082       .  S
C1759      C1764   1.384       .  A
C1759      C1760   1.406       .  A
C1759      N1765   1.343       .  A
C1760      C1761   1.404       .  A
C1760      H1771   1.082       .  S
C1761      C1770   1.383       .  A
C1761      C1762   1.382       .  A
C1762      C1763   1.409       .  A
C1762      N1768   1.345       .  A
C1763      C1764   1.407       .  A
C1763      H1772   1.082       .  S
C1764      C1767   1.387       .  A
N1765      C1766   1.356       .  A
N1765      H1775   1.045       .  S
C1766      C1767   1.396       .  A
C1767      H1773   1.082       .  S
N1768      C1769   1.359       .  A
N1768      H1776   1.043       .  S
C1769      C1770   1.397       .  A
C1770      H1774   1.082       .  S
C1777      C1782   1.382       .  A
C1777      C1778   1.411       .  A
C1777      N1783   1.348       .  A
C1778      H1789   1.082       .  S
C1779      C1788   1.395       .  A
C1779      C1780   1.382       .  A
C1780      C1781   1.396       .  A
C1780      N1786   1.335       .  A
C1781      H1790   1.083       .  S
C1782      C1785   1.370       .  A
N1783      C1784   1.361       .  A
N1783      H1793   1.044       .  S
C1784      C1785   1.396       .  A
C1785      H1791   1.081       .  S
N1786      C1787   1.353       .  A
N1786      H1794   1.044       .  S
C1787      C1788   1.404       .  A
C1788      H1792   1.082       .  S
C1795      C1800   1.382       .  A
C1795      C1796   1.409       .  A
C1795      N1801   1.351       .  A
C1796      C1797   1.410       .  A
C1796      H1807   1.082       .  S
C1797      C1806   1.382       .  A
C1797      C1798   1.385       .  A
C1798      C1799   1.403       .  A
C1798      N1804   1.346       .  A
C1799      C1800   1.403       .  A
C1799      H1808   1.083       .  S
C1800      C1803   1.374       .  A
N1801      C1802   1.359       .  A
N1801      H1811   1.044       .  S
C1802      C1803   1.395       .  A
C1803      H1809   1.077       .  S
N1804      C1805   1.355       .  A
N1804      H1812   1.045       .  S
C1805      C1806   1.400       .  A
C1806      H1810   1.082       .  S
C1813      C1818   1.384       .  A
C1813      C1814   1.406       .  A
C1813      N1819   1.349       .  A
C1814      C1815   1.407       .  A
C1815      C1824   1.377       .  A
C1815      C1816   1.383       .  A
C1816      C1817   1.407       .  A
C1816      N1822   1.350       .  A
C1817      C1818   1.408       .  A
C1817      H1826   1.082   1_565  S
C1818      C1821   1.379   1_565  A
N1819      C1820   1.357       .  A
C1820      C1821   1.399   1_565  A
C1821      H1827   1.082       .  S
N1822      C1823   1.359       .  A
N1822      H1830   1.044       .  S
C1823      C1824   1.400       .  A
C1824      H1828   1.081       .  S
C1831      C1836   1.381       .  A
C1831      C1832   1.404       .  A
C1831      N1837   1.344       .  A
C1832      C1833   1.403       .  A
C1832      H1843   1.082       .  S
C1833      C1842   1.378       .  A
C1833      C1834   1.384       .  A
C1834      C1835   1.410       .  A
C1834      N1840   1.350       .  A
C1835      C1836   1.409       .  A
C1836      C1839   1.386   1_565  A
N1837      C1838   1.358       .  A
N1837      H1847   1.044       .  S
C1838      C1839   1.403   1_565  A
N1840      C1841   1.359       .  A
N1840      H1848   1.045       .  S
C1841      C1842   1.399       .  A
C1842      H1846   1.083       .  S
C1849      C1854   1.381       .  A
C1849      C1850   1.397       .  A
C1849      N1855   1.336       .  A
C1850      C1851   1.397       .  A
C1850      H1861   1.083       .  S
C1851      C1860   1.366       .  A
C1851      C1852   1.380       .  A
C1852      C1853   1.411       .  A
C1852      N1858   1.349       .  A
C1853      C1854   1.410       .  A
C1853      H1862   1.082       .  S
C1854      C1857   1.387       .  A
N1855      C1856   1.353       .  A
N1855      H1865   1.041       .  S
C1856      C1857   1.401       .  A
C1857      H1863   1.082       .  S
N1858      C1859   1.363       .  A
N1858      H1866   1.044       .  S
C1859      C1860   1.399       .  A
C1860      H1864   1.080       .  S
C1867      C1872   1.386       .  A
C1867      C1868   1.403       .  A
C1867      N1873   1.341       .  A
C1868      C1869   1.399       .  A
C1868      H1879   1.082       .  S
C1869      C1878   1.375       .  A
C1869      C1870   1.382       .  A
C1870      C1871   1.402       .  A
C1870      N1876   1.341       .  A
C1871      C1872   1.401       .  A
C1871      H1880   1.082       .  S
C1872      C1875   1.378       .  A
N1873      C1874   1.356       .  A
N1873      H1883   1.045       .  S
C1874      C1875   1.394       .  A
C1875      H1881   1.082       .  S
N1876      C1877   1.356       .  A
N1876      H1884   1.044       .  S
C1877      C1878   1.396       .  A
C1878      H1882   1.082       .  S
C1885      C1890   1.384       .  A
C1885      C1886   1.407   1_455  A
C1885      N1891   1.341   1_455  A
C1886      C1887   1.403   1_655  A
C1886      H4033   1.082       .  S
C1887      C1896   1.384       .  A
C1887      C1888   1.382       .  A
C1888      C1889   1.407       .  A
C1888      N1894   1.341       .  A
C1889      C1890   1.404       .  A
C1889      H1898   1.083       .  S
C1890      C1893   1.387       .  A
N1891      C1892   1.358   1_655  A
N1891      H4037   1.045       .  S
C1892      C1893   1.396       .  A
C1893      H1899   1.082       .  S
N1894      C1895   1.358       .  A
N1894      H1902   1.042       .  S
C1895      C1896   1.399       .  A
C1896      H1900   1.082       .  S
H1897      C4022   1.083       .  S
H1901      N4027   1.045       .  S
C1903      C1908   1.384       .  A
C1903      C1904   1.411       .  A
C1903      N1909   1.346       .  A
C1904      C1905   1.408       .  A
C1904      H1915   1.082   1_455  S
C1905      C1914   1.390       .  A
C1905      C1906   1.381       .  A
C1906      C1907   1.403       .  A
C1906      N1912   1.338       .  A
C1907      C1908   1.400       .  A
C1907      H1916   1.083       .  S
C1908      C1911   1.379       .  A
N1909      C1910   1.358       .  A
N1909      H1919   1.044       .  S
C1910      C1911   1.395       .  A
C1911      H1917   1.083       .  S
N1912      C1913   1.357       .  A
N1912      H1920   1.043       .  S
C1913      C1914   1.401       .  A
C1914      H1918   1.082   1_455  S
C1921      C1926   1.380       .  A
C1921      C1922   1.402       .  A
C1921      N1927   1.341       .  A
C1922      C1923   1.402       .  A
C1922      H1933   1.083       .  S
C1923      C1932   1.377       .  A
C1923      C1924   1.386       .  A
C1924      C4061   1.408       .  A
C1924      N4066   1.346       .  A
C1925      C4060   1.408       .  A
C1925      C4062   1.405       .  A
C1925      H1934   1.082   1_655  S
C1926      C4061   1.405       .  A
C1926      C1929   1.383       .  A
N1927      C1928   1.359       .  A
N1927      H1937   1.043       .  S
C1928      C1929   1.401       .  A
C1929      H4071   1.082       .  S
N1930      C4060   1.346       .  A
N1930      C4067   1.357       .  A
N1930      H1938   1.045       .  S
C1931      C1932   1.396       .  A
C1931      N4066   1.357       .  A
C1932      H1936   1.083       .  S
H1935      C4065   1.082       .  S
C1939      C1944   1.381       .  A
C1939      C1940   1.405       .  A
C1939      N1945   1.344       .  A
C1940      C1941   1.405       .  A
C1940      H1951   1.082       .  S
C1941      C1950   1.382       .  A
C1941      C1942   1.386       .  A
C1942      C1943   1.403       .  A
C1942      N1948   1.341       .  A
C1943      C1944   1.400       .  A
C1943      H1952   1.083       .  S
C1944      C1947   1.376       .  A
N1945      C1946   1.359       .  A
N1945      H1955   1.044       .  S
C1946      C1947   1.397       .  A
C1947      H1953   1.082       .  S
N1948      C1949   1.355       .  A
N1948      H1956   1.045       .  S
C1949      C1950   1.396       .  A
C1950      H1954   1.082       .  S
C1957      C1962   1.384       .  A
C1957      C4094   1.407       .  A
C1957      N1963   1.350       .  A
C1958      C4093   1.406   1_455  A
C1958      C4095   1.407       .  A
C1958      H1969   1.083       .  S
C1959      C4094   1.408       .  A
C1959      C4104   1.379       .  A
C1959      C1960   1.383       .  A
C1960      C1961   1.406       .  A
C1960      N1966   1.349       .  A
C1961      C1962   1.407       .  A
C1961      H1970   1.082       .  S
C1962      C1965   1.378       .  A
N1963      C1964   1.357       .  A
N1963      H4109   1.045       .  S
C1964      C1965   1.397       .  A
C1965      H1971   1.081       .  S
N1966      C1967   1.358       .  A
N1966      H1974   1.045       .  S
C1967      C4104   1.400       .  A
C1968      C4095   1.378       .  A
C1968      C4103   1.400   1_455  A
C1968      H1972   1.079       .  S
H1973      N4099   1.045       .  S
C1975      C1980   1.384       .  A
C1975      C1976   1.408       .  A
C1975      N1981   1.343       .  A
C1976      C1977   1.404       .  A
C1976      H1987   1.082       .  S
C1977      C1986   1.386       .  A
C1977      C1978   1.380       .  A
C1978      C1979   1.408       .  A
C1978      N1984   1.342       .  A
C1979      C1980   1.405       .  A
C1979      H1988   1.083       .  S
C1980      C1983   1.387       .  A
N1981      C1982   1.358       .  A
N1981      H1991   1.041       .  S
C1982      C1983   1.397       .  A
C1983      H1989   1.082       .  S
N1984      C1985   1.360       .  A
N1984      H1992   1.041       .  S
C1985      C1986   1.401       .  A
C1986      H1990   1.082       .  S
C1993      C1998   1.381       .  A
C1993      C1994   1.413       .  A
C1993      N1999   1.349       .  A
C1994      C1995   1.411       .  A
C1994      H2005   1.082       .  S
C1995      C2004   1.389       .  A
C1995      C1996   1.381       .  A
C1996      C1997   1.397       .  A
C1996      N2002   1.336       .  A
C1997      C1998   1.396       .  A
C1997      H2006   1.083       .  S
C1998      C2001   1.368       .  A
N1999      C2000   1.362       .  A
N1999      H2009   1.044       .  S
C2000      C2001   1.396       .  A
C2001      H2007   1.082       .  S
N2002      C2003   1.353       .  A
N2002      H2010   1.039       .  S
C2003      C2004   1.403       .  A
C2011      C2016   1.384       .  A
C2011      C2012   1.412       .  A
C2011      N2017   1.348       .  A
C2012      C2013   1.409       .  A
C2012      H2023   1.082       .  S
C2013      C2022   1.391       .  A
C2013      C2014   1.381       .  A
C2014      C2015   1.406       .  A
C2014      N2020   1.341       .  A
C2015      C2016   1.404       .  A
C2015      H2024   1.083       .  S
C2016      C2019   1.383       .  A
N2017      C2018   1.360       .  A
N2017      H2027   1.044       .  S
C2018      C2019   1.398       .  A
C2019      H2025   1.083       .  S
N2020      C2021   1.358       .  A
N2020      H2028   1.042       .  S
C2021      C2022   1.400       .  A
C2022      H2026   1.082       .  S
C2029      C2034   1.383       .  A
C2029      C2030   1.406       .  A
C2029      N2035   1.343       .  A
C2030      C2031   1.404       .  A
C2030      H2041   1.083       .  S
C2031      C2040   1.383   1_556  A
C2031      C2032   1.384       .  A
C2032      C2033   1.405       .  A
C2032      N2038   1.342       .  A
C2033      C2034   1.403       .  A
C2033      H2042   1.082       .  S
C2034      C2037   1.382       .  A
N2035      C2036   1.357       .  A
N2035      H2045   1.044       .  S
C2036      C2037   1.397       .  A
C2037      H2043   1.082       .  S
N2038      C2039   1.357   1_556  A
N2038      H2046   1.045       .  S
C2039      C2040   1.397       .  A
C2040      H2044   1.082       .  S
C2047      C2052   1.384       .  A
C2047      C2048   1.405       .  A
C2047      N2053   1.342   1_655  A
C2048      C2049   1.403       .  A
C2048      H2059   1.082       .  S
C2049      C2058   1.382       .  A
C2049      C2050   1.383       .  A
C2050      C2051   1.408       .  A
C2050      N4192   1.343       .  A
C2051      C2052   1.405       .  A
C2051      H4196   1.083       .  S
C2052      C2055   1.385   1_655  A
N2053      C2054   1.356       .  A
N2053      H2063   1.045       .  S
C2054      C2055   1.395       .  A
C2055      H2061   1.082       .  S
N2056      C4186   1.343       .  A
N2056      C4193   1.359       .  A
N2056      H2064   1.043       .  S
C2057      C2058   1.397   1_554  A
C2057      N4192   1.360   1_554  A
C2058      H2062   1.082   1_556  S
H2060      C4187   1.083       .  S
C2065      C2070   1.381       .  A
C2065      C2066   1.414       .  A
C2065      N2071   1.354       .  A
C2066      C2067   1.416       .  A
C2066      H2077   1.082       .  S
C2067      C2076   1.390       .  A
C2067      C2068   1.383       .  A
C2068      C2069   1.396       .  A
C2068      N2074   1.337       .  A
C2069      C2070   1.394       .  A
C2069      H2078   1.083       .  S
C2070      C2073   1.365       .  A
N2071      C2072   1.362   1_556  A
N2071      H2081   1.044       .  S
C2072      C2073   1.392   1_554  A
C2073      H2079   1.080       .  S
N2074      C2075   1.355       .  A
N2074      H2082   1.043       .  S
C2075      C2076   1.407       .  A
C2076      H2080   1.082       .  S
C2083      C2088   1.385   1_565  A
C2083      C2084   1.404       .  A
C2083      N2089   1.348   1_556  A
C2084      C2085   1.404       .  A
C2084      H2095   1.083       .  S
C2085      C2094   1.375       .  A
C2085      C2086   1.382   1_565  A
C2086      C2087   1.411       .  A
C2086      N2092   1.354       .  A
C2087      C2088   1.413       .  A
C2087      H2096   1.082       .  S
C2088      C2091   1.384       .  A
N2089      C2090   1.355   1_565  A
N2089      H2099   1.045       .  S
C2090      C2091   1.405   1_554  A
C2091      H2097   1.083       .  S
N2092      C2093   1.360   1_545  A
N2092      H2100   1.044       .  S
C2093      C2094   1.395       .  A
C2094      H2098   1.077       .  S
C2101      C2106   1.383       .  A
C2101      C2102   1.402       .  A
C2101      N2107   1.342       .  A
C2102      C2103   1.401       .  A
C2102      H2113   1.083       .  S
C2103      C2112   1.375       .  A
C2103      C2104   1.386       .  A
C2104      C2105   1.405       .  A
C2104      N2110   1.345   1_556  A
C2105      C2106   1.404       .  A
C2105      H2114   1.082   1_455  S
C2106      C2109   1.379       .  A
N2107      C2108   1.356       .  A
N2107      H2117   1.044       .  S
C2108      C2109   1.399       .  A
C2109      H2115   1.082       .  S
N2110      C2111   1.356       .  A
N2110      H2118   1.045   1_455  S
C2111      C2112   1.396   1_554  A
C2112      H2116   1.083       .  S
C2119      C2124   1.382   1_545  A
C2119      C2120   1.408       .  A
C2119      N2125   1.347       .  A
C2120      C2121   1.407       .  A
C2120      H2131   1.082       .  S
C2121      C2130   1.385       .  A
C2121      C2122   1.383   1_545  A
C2122      C2123   1.400       .  A
C2122      N2128   1.339       .  A
C2123      C2124   1.399       .  A
C2123      H2132   1.083       .  S
C2124      C2127   1.371       .  A
N2125      C2126   1.360   1_545  A
N2125      H2135   1.044       .  S
C2126      C2127   1.398       .  A
C2127      H2133   1.081       .  S
N2128      C2129   1.356   1_566  A
N2128      H2136   1.044       .  S
C2129      C2130   1.398   1_554  A
C2130      H2134   1.082       .  S
C2137      C2138   1.532       .  S
C2137      C2143   1.522       .  S
C2137      C2141   1.551       .  S
C2137      C2471   1.515       .  S
C2138      H2145   1.085       .  S
C2138      C2139   1.374       .  D
C2139      C2140   1.550       .  S
C2139      C3176   1.480       .  S
C2140      C2144   1.531       .  S
C2140      C2142   1.535       .  S
C2140      H2146   1.104       .  S
C2141      H2147   1.085       .  S
C2141      C2142   1.374       .  D
C2142      C3194   1.485       .  S
C2143      H2148   1.071       .  S
C2143      C2144   1.349       .  D
C2144      C2192   1.476       .  S
C2149      C2150   1.546       .  S
C2149      C2155   1.524       .  S
C2149      C2153   1.556       .  S
C2149      C2474   1.532       .  S
C2150      H2157   1.086       .  S
C2150      C2151   1.376       .  D
C2151      C2152   1.548       .  S
C2151      C3161   1.489       .  S
C2152      C2156   1.538       .  S
C2152      C2154   1.539       .  S
C2152      H2158   1.107       .  S
C2153      H2159   1.085       .  S
C2153      C2154   1.377       .  D
C2154      C3143   1.494       .  S
C2155      H2160   1.072       .  S
C2155      C2156   1.349       .  D
C2156      C2183   1.485       .  S
C2161      C2162   1.538       .  S
C2161      C2167   1.508       .  S
C2161      C2165   1.546       .  S
C2161      C2462   1.512       .  S
C2162      H2169   1.086       .  S
C2162      C2163   1.377       .  D
C2163      C2164   1.547       .  S
C2163      C3104   1.475       .  S
C2164      C2168   1.545       .  S
C2164      C2166   1.542       .  S
C2164      H2170   1.111       .  S
C2165      H2171   1.087       .  S
C2165      C2166   1.368       .  D
C2166      C3122   1.482       .  S
C2167      H2172   1.071       .  S
C2167      C2168   1.346       .  D
C2168      C2188   1.473       .  S
Fe2173     O2189   2.067       .  S
Fe2173     O2179   2.081       .  S
Fe2173     O2186   2.076       .  S
Fe2173     O2178   2.083       .  S
Fe2173     O2184   1.955       .  S
Fe2174     O2177   2.076       .  S
Fe2174     O2181   2.091       .  S
Fe2174     O2185   2.075       .  S
Fe2174     O2190   2.081       .  S
Fe2174     O2184   1.964       .  S
Fe2175     O2193   2.080       .  S
Fe2175     O2180   2.087       .  S
Fe2175     O2187   2.086       .  S
Fe2175     O2176   2.087       .  S
Fe2175     O2184   1.956       .  S
O2176      C2183   1.269       .  A
O2177      C2191   1.269       .  A
O2178      C2183   1.267       .  A
O2179      C2182   1.276       .  A
O2180      C2192   1.277       .  A
O2181      C2194   1.274       .  A
C2182      C2417   1.518       .  S
C2182      O2187   1.277       .  A
O2185      C2188   1.269       .  A
O2186      C2188   1.271       .  A
O2189      C2194   1.270       .  A
O2190      C2192   1.274       .  A
C2191      C2441   1.519       .  S
C2191      O2193   1.270       .  A
C2194      C2429   1.519       .  S
C2195      C2196   1.419       .  A
C2195      C2200   1.406       .  A
C2195      C3197   1.491       .  S
C2196      C2197   1.408       .  A
C2196      C3158   1.489       .  S
C2197      C3266   1.410       .  A
C2197      H2202   1.084       .  S
C2198      C3265   1.410       .  A
C2198      C2199   1.426       .  A
C2198      C3071   1.492       .  S
C2199      C3268   1.404       .  A
C2199      C3086   1.488       .  S
C2200      C3267   1.407       .  A
C2200      H2201   1.084       .  S
C2203      C2204   1.543       .  S
C2203      C2209   1.518       .  S
C2203      C2207   1.550       .  S
C2203      C2380   1.527       .  S
C2204      H2211   1.087       .  S
C2204      C2205   1.364       .  D
C2205      C2206   1.539       .  S
C2205      C3050   1.478       .  S
C2206      C2210   1.544       .  S
C2206      C2208   1.548       .  S
C2206      H2212   1.111       .  S
C2207      H2213   1.085       .  S
C2207      C2208   1.383       .  D
C2208      C3089   1.489       .  S
C2209      H2214   1.074       .  S
C2209      C2210   1.351       .  D
C2210      C2248   1.480       .  S
C2215      C2216   1.549       .  S
C2215      C2221   1.508       .  S
C2215      C2219   1.544       .  S
C2215      C2392   1.524       .  S
C2216      H2223   1.086   1_655  S
C2216      C2217   1.376       .  D
C2217      C2218   1.541       .  S
C2217      C3032   1.488       .  S
C2218      C2222   1.543       .  S
C2218      C2220   1.550       .  S
C2218      H2224   1.110       .  S
C2219      H2225   1.085       .  S
C2219      C2220   1.381       .  D
C2220      C3014   1.485       .  S
C2221      H2226   1.067       .  S
C2221      C2222   1.342       .  D
C2222      C2260   1.478       .  S
C2227      C2228   1.556       .  S
C2227      C2233   1.520       .  S
C2227      C2231   1.538       .  S
C2227      C2389   1.522       .  S
C2228      H2235   1.086   1_545  S
C2228      C2229   1.375       .  D
C2229      C2230   1.538       .  S
C2229      C3068   1.490       .  S
C2230      C2234   1.528       .  S
C2230      C2232   1.545       .  S
C2230      H2236   1.104       .  S
C2231      H2237   1.085       .  S
C2231      C2232   1.380       .  D
C2232      C2996   1.484       .  S
C2233      H2238   1.070       .  S
C2233      C2234   1.348       .  D
C2234      C2257   1.484       .  S
Fe2239     O2255   2.089       .  S
Fe2239     O2245   2.072       .  S
Fe2239     O2252   2.067       .  S
Fe2239     O2244   2.085       .  S
Fe2239     O2250   1.941       .  S
Fe2240     O2243   2.089       .  S
Fe2240     O2247   2.077       .  S
Fe2240     O2251   2.099       .  S
Fe2240     O2256   2.068       .  S
Fe2240     O2250   1.948       .  S
Fe2241     O2259   2.086       .  S
Fe2241     O2246   2.095       .  S
Fe2241     O2253   2.095       .  S
Fe2241     O2242   2.082       .  S
Fe2241     O2250   1.941       .  S
O2242      C2249   1.274       .  A
O2243      C2257   1.273       .  A
O2244      C2249   1.275       .  A
O2245      C2248   1.267       .  A
O2246      C2258   1.278       .  A
O2247      C2260   1.268       .  A
C2248      O2253   1.276       .  A
C2249      C2335   1.518       .  S
O2251      C2254   1.277       .  A
O2252      C2254   1.267       .  A
C2254      C2347   1.517       .  S
O2255      C2260   1.276       .  A
O2256      C2258   1.270       .  A
C2257      O2259   1.273       .  A
C2258      C2359   1.514       .  S
C2261      C2262   1.421       .  A
C2261      C2266   1.406       .  A
C2261      C3125   1.499   1_554  S
C2262      C2263   1.405       .  A
C2262      C3179   1.474       .  S
C2263      H2268   1.084       .  S
C2264      C2265   1.421       .  A
C2264      C3035   1.500       .  S
C2265      C2999   1.478       .  S
C2266      H2267   1.084       .  S
C2269      C2270   1.421       .  A
C2269      C2274   1.408       .  A
C2269      C3140   1.500       .  S
C2270      C2271   1.399       .  A
C2270      C3107   1.475       .  S
C2271      C2272   1.402       .  A
C2271      H2276   1.084       .  S
C2272      C2273   1.422       .  A
C2272      C3053   1.496       .  S
C2273      C2274   1.411       .  A
C2273      C3017   1.482       .  S
C2274      H2275   1.084       .  S
C2277      C2278   1.542       .  S
C2277      C2281   1.546       .  S
C2277      C2520   1.526       .  S
C2278      H2285   1.087       .  S
C2279      C2280   1.539       .  S
C2279      C2960   1.479       .  S
C2280      C2284   1.544       .  S
C2280      C2282   1.547       .  S
C2280      H2286   1.111       .  S
C2281      H2287   1.086       .  S
C2282      C2981   1.480       .  S
C2283      C2284   1.354       .  D
C2284      C2328   1.484       .  S
C2289      C2290   1.556       .  S
C2289      C2295   1.519       .  S
C2289      C2293   1.538       .  S
C2289      C2529   1.522       .  S
C2290      H2297   1.085       .  S
C2290      C2291   1.382       .  D
C2291      C2292   1.542       .  S
C2291      C2927   1.499       .  S
C2292      C2296   1.528       .  S
C2292      C2294   1.543       .  S
C2292      H2298   1.104       .  S
C2293      H2299   1.086       .  S
C2293      C2294   1.375       .  D
C2294      C2945   1.479       .  S
C2295      H2300   1.069       .  S
C2295      C2296   1.347       .  D
C2296      C2332   1.482       .  S
C2301      C2302   1.544       .  S
C2301      C3375   1.508   1_545  S
C2301      C2305   1.550       .  S
C2301      C2532   1.525       .  S
C2302      H2309   1.086       .  S
C2302      C3371   1.377   1_545  D
C2303      C2304   1.539       .  S
C2303      C3370   1.369       .  D
C2303      C2888   1.482       .  S
C2304      C2308   1.552       .  S
C2304      C2306   1.558       .  S
C2304      H2310   1.109       .  S
C2305      H2311   1.085       .  S
C2305      C3374   1.382   1_545  D
C2306      C3373   1.382       .  D
C2306      C2906   1.496       .  S
C2307      C3369   1.509       .  S
C2307      H3380   1.074       .  S
C2307      C2308   1.346       .  D
C2308      C2323   1.486       .  S
H2312      C3375   1.069       .  S
Fe2313     O2329   2.076       .  S
Fe2313     O2319   2.060       .  S
Fe2313     O2326   2.072       .  S
Fe2313     O2318   2.073       .  S
Fe2313     O2324   1.950       .  S
Fe2314     O2317   2.099       .  S
Fe2314     O2321   2.087       .  S
Fe2314     O2325   2.103       .  S
Fe2314     O2330   2.085       .  S
Fe2314     O2324   1.954       .  S
Fe2315     O2333   2.091       .  S
Fe2315     O2320   2.087       .  S
Fe2315     O2327   2.104       .  S
Fe2315     O2316   2.099       .  S
Fe2315     O2324   1.967       .  S
O2316      C2323   1.272       .  A
O2317      C2331   1.278       .  A
O2318      C2323   1.270       .  A
O2319      C2322   1.270       .  A
O2320      C2332   1.273       .  A
O2321      C2334   1.274       .  A
C2322      C2475   1.518       .  S
C2322      O2327   1.277       .  A
O2325      C2328   1.277       .  A
O2326      C2328   1.268       .  A
O2329      C2334   1.271       .  A
O2330      C2332   1.274       .  A
C2331      C2499   1.530       .  S
C2331      O2333   1.274       .  A
C2334      C2487   1.522       .  S
C2335      C2336   1.534       .  S
C2335      C2341   1.523       .  S
C2335      C2339   1.554       .  S
C2336      H2343   1.086       .  S
C2336      C2337   1.369       .  D
C2337      C2338   1.547       .  S
C2337      C2870   1.473       .  S
C2338      C2342   1.539       .  S
C2338      C2340   1.545       .  S
C2338      H2344   1.105       .  S
C2339      H2345   1.085       .  S
C2339      C2340   1.377       .  D
C2340      C2852   1.497   1_545  S
C2341      H2346   1.072       .  S
C2341      C2342   1.349       .  D
C2342      C2381   1.486       .  S
C2347      C2348   1.536       .  S
C2347      C2353   1.509       .  S
C2347      C2351   1.547       .  S
C2348      H2355   1.086       .  S
C2348      C2349   1.376       .  D
C2349      C2350   1.552       .  S
C2349      C2816   1.482       .  S
C2350      C2354   1.554       .  S
C2350      C2352   1.547       .  S
C2350      H2356   1.111       .  S
C2351      H2357   1.086       .  S
C2351      C2352   1.373       .  D
C2352      C2834   1.488       .  S
C2353      H2358   1.066       .  S
C2353      C2354   1.346       .  D
C2354      C2386   1.488       .  S
C2359      C2360   1.531       .  S
C2359      C2365   1.517       .  S
C2359      C2363   1.551       .  S
C2360      H2367   1.085       .  S
C2360      C2361   1.374       .  D
C2361      C2362   1.549       .  S
C2361      C2801   1.483       .  S
C2362      C2366   1.536       .  S
C2362      C2364   1.541       .  S
C2362      H2368   1.105       .  S
C2363      H2369   1.085       .  S
C2363      C2364   1.375       .  D
C2364      C2783   1.488       .  S
C2365      H2370   1.067       .  S
C2365      C2366   1.348       .  D
C2366      C2390   1.481       .  S
Fe2371     O3445   2.106       .  S
Fe2371     O2376   2.078       .  S
Fe2371     O2382   1.957       .  S
Fe2372     O2375   2.074       .  S
Fe2372     O2379   2.101       .  S
Fe2372     O2383   2.085       .  S
Fe2372     O2388   2.097       .  S
Fe2373     O2378   2.088       .  S
Fe2373     O2385   2.078       .  S
Fe2373     O2374   2.098       .  S
Fe2373     O3450   1.948   1_545  S
O2374      C2381   1.273       .  A
O2375      C3457   1.269       .  A
O2376      C3449   1.267       .  A
O2377     Fe3439   2.095   1_545  S
O2377      C2380   1.276       .  A
O2379      C2392   1.278       .  A
C2380      O2385   1.277       .  A
C2381      O3444   1.268   1_545  A
O2382     Fe3441   1.953       .  S
O2383      C2386   1.270       .  A
O2384      C2386   1.276       .  A
O2387      C2392   1.270   1_455  A
O2388      C3458   1.275       .  A
C2389      O3443   1.269   1_545  A
C2389      O2391   1.276       .  A
C2390      O3456   1.274       .  A
C2393      C2394   1.416       .  A
C2393      C2398   1.403       .  A
C2393      C2978   1.475       .  S
C2394      C2395   1.402       .  A
C2394      C2924   1.483       .  S
C2395      C2396   1.405       .  A
C2395      H2400   1.084       .  S
C2396      C2397   1.422       .  A
C2396      C2873   1.483       .  S
C2397      C2398   1.403       .  A
C2397      C2780   1.488       .  S
C2398      H2399   1.084       .  S
C2401      C2402   1.422       .  A
C2401      C2406   1.406       .  A
C2401      C2942   1.477       .  S
C2402      C2403   1.404       .  A
C2402      C2891   1.500       .  S
C2403      C2404   1.406       .  A
C2403      H2408   1.084       .  S
C2404      C2405   1.422       .  A
C2404      C2798   1.473       .  S
C2405      C2406   1.406       .  A
C2405      C2837   1.502       .  S
C2406      H2407   1.084       .  S
C2409      C2410   1.425       .  A
C2409      C2414   1.410       .  A
C2409      C2909   1.492       .  S
C2410      C2411   1.412       .  A
C2410      C2963   1.499       .  S
C2411      C2412   1.405       .  A
C2411      H2416   1.083       .  S
C2412      C2413   1.419       .  A
C2412      C2819   1.492       .  S
C2413      C2414   1.409       .  A
C2413      C2855   1.491       .  S
C2414      H2415   1.084       .  S
C2417      C2418   1.549       .  S
C2417      C2423   1.520       .  S
C2417      C2421   1.541       .  S
C2418      H2425   1.085       .  S
C2418      C2419   1.372       .  D
C2419      C2420   1.543       .  S
C2419      C2744   1.488       .  S
C2420      C2424   1.542       .  S
C2420      C2422   1.551       .  S
C2420      H2426   1.107       .  S
C2421      H2427   1.086       .  S
C2421      C2422   1.373       .  D
C2422      C2762   1.484       .  S
C2423      H2428   1.071       .  S
C2423      C2424   1.348       .  D
C2424      C2468   1.483       .  S
C2429      C2430   1.547       .  S
C2429      C2435   1.512       .  S
C2429      C2433   1.539       .  S
C2430      H2437   1.087       .  S
C2430      C2431   1.370       .  D
C2431      C2432   1.546       .  S
C2431      C2729   1.492       .  S
C2432      C2436   1.556       .  S
C2432      C2434   1.552       .  S
C2432      H2438   1.111       .  S
C2433      H2439   1.086       .  S
C2433      C2434   1.377       .  D
C2434      C2708   1.481       .  S
C2435      H2440   1.071       .  S
C2435      C2436   1.348       .  D
C2436      C2463   1.492       .  S
C2441      C2442   1.552       .  S
C2441      C2447   1.522       .  S
C2441      C2445   1.532       .  S
C2442      H2449   1.085       .  S
C2442      C2443   1.373       .  D
C2443      C2444   1.538       .  S
C2443      C2675   1.486       .  S
C2444      C2448   1.543       .  S
C2444      C2446   1.555       .  S
C2444      H2450   1.108       .  S
C2445      H2451   1.086       .  S
C2445      C2446   1.370       .  D
C2446      C2693   1.478       .  S
C2447      H2452   1.070       .  S
C2447      C2448   1.352       .  D
C2448      C2472   1.488       .  S
Fe2453     O3537   2.099   1_545  S
Fe2453     O3534   2.086   1_545  S
Fe2454     O2461   2.101       .  S
Fe2454     O2465   2.085       .  S
Fe2455     O3541   2.068   1_545  S
Fe2455     O3528   2.088   1_545  S
Fe2455     O2467   2.092       .  S
Fe2455     O2456   2.083       .  S
Fe2455     O3532   1.957   1_545  S
O2456      C2463   1.268       .  A
O2457      C2471   1.271       .  A
O2458      C2463   1.277       .  A
O2459      C2462   1.269       .  A
O2460     Fe3523   2.077       .  S
O2460      C2472   1.272       .  A
O2461      C2474   1.277       .  A
C2462      O2467   1.275       .  A
O2464     Fe3523   1.975       .  S
O2465      C2468   1.270       .  A
O2466     Fe3521   2.084       .  S
O2466      C2468   1.269       .  A
O2469     Fe3521   2.088       .  S
O2469      C2474   1.276       .  A
O2470      C2472   1.280       .  A
C2471      O2473   1.268       .  A
O2473     Fe3523   2.073       .  S
C2475      C2476   1.544       .  S
C2475      C2481   1.509       .  S
C2475      C2479   1.545       .  S
C2476      H2483   1.085       .  S
C2476      C3545   1.383       .  D
C2477      C2478   1.548       .  S
C2477      C3544   1.378   1_545  D
C2477      C2639   1.490       .  S
C2478      C2482   1.553       .  S
C2478      C2480   1.549       .  S
C2478      H2484   1.111       .  S
C2479      H2485   1.087       .  S
C2479      C3548   1.367       .  D
C2480      C3547   1.376   1_545  D
C2480      C2654   1.489       .  S
C2481      H2486   1.073       .  S
C2481      C3550   1.346       .  D
C2482      C3549   1.345   1_545  D
C2482      C2526   1.486       .  S
C2487      C2488   1.539       .  S
C2487      C2493   1.526       .  S
C2487      C2491   1.549       .  S
C2488      H2495   1.086       .  S
C2489      C2490   1.550   1_455  S
C2489      C2600   1.487       .  S
C2490      C2494   1.539       .  S
C2490      C2492   1.540       .  S
C2490      H2496   1.105       .  S
C2491      H2497   1.085       .  S
C2492      C2618   1.489       .  S
C2493      H2498   1.074       .  S
C2494      C2521   1.487       .  S
C2499      C2500   1.546       .  S
C2499      C2505   1.520       .  S
C2499      C2503   1.556       .  S
C2500      H2507   1.085       .  S
C2500      C2501   1.382       .  D
C2501      C2502   1.545       .  S
C2501      C2585   1.489       .  S
C2502      C2506   1.530       .  S
C2502      C2504   1.539       .  S
C2502      H2508   1.105       .  S
C2503      H2509   1.085       .  S
C2503      C2504   1.379       .  D
C2504      C2567   1.495       .  S
C2505      H2510   1.070       .  S
C2505      C2506   1.345       .  D
C2506      C2530   1.485       .  S
Fe2511     O2527   2.083       .  S
Fe2511     O2517   2.091       .  S
Fe2511     O2524   2.092       .  S
Fe2511     O2516   2.089       .  S
Fe2511     O2522   1.959       .  S
Fe2512     O2515   2.081       .  S
Fe2512     O2519   2.100       .  S
Fe2512     O2523   2.083       .  S
Fe2512     O2528   2.096       .  S
Fe2512     O2522   1.968       .  S
Fe2513     O2531   2.088       .  S
Fe2513     O2518   2.085       .  S
Fe2513     O2525   2.084       .  S
Fe2513     O2514   2.087       .  S
Fe2513     O2522   1.954       .  S
O2514      C2521   1.270       .  A
O2515      C2529   1.269       .  A
O2516      C2521   1.271       .  A
O2517      C2520   1.275       .  A
O2518      C2530   1.274       .  A
O2519      C2532   1.278       .  A
C2520      O2525   1.278       .  A
O2523      C2526   1.269       .  A
O2524      C2526   1.274       .  A
O2527      C2532   1.273       .  A
O2528      C2530   1.275       .  A
C2529      O2531   1.274       .  A
C2533      C2534   1.422       .  A
C2533      C2538   1.411       .  A
C2533      C2672   1.494       .  S
C2534      C2535   1.407       .  A
C2534      C2765   1.487       .  S
C2535      C2536   1.405       .  A
C2535      H2540   1.084       .  S
C2536      C2537   1.421       .  A
C2536      C2564   1.488       .  S
C2537      C2538   1.411       .  A
C2537      C2603   1.495       .  S
C2538      H2539   1.084       .  S
C2541      C2542   1.421       .  A
C2541      C2546   1.412       .  A
C2541      C2726   1.507       .  S
C2542      C2543   1.407       .  A
C2542      C2690   1.481       .  S
C2543      C2544   1.406       .  A
C2543      H2548   1.084       .  S
C2544      C2545   1.425       .  A
C2544      C2657   1.505       .  S
C2545      C2546   1.416       .  A
C2545      C2582   1.488       .  S
C2546      H2547   1.084       .  S
C2549      C2550   1.421       .  A
C2549      C2554   1.406       .  A
C2549      C2711   1.489       .  S
C2550      C2551   1.406       .  A
C2550      C2747   1.481       .  S
C2551      C2552   1.400       .  A
C2551      H2556   1.084       .  S
C2552      C2553   1.418       .  A
C2552      C2636   1.485       .  S
C2553      C2554   1.407       .  A
C2553      C2621   1.481       .  S
C2554      H2555   1.084   1_655  S
C2557      C2562   1.383       .  A
C2557      C2558   1.398       .  A
C2557      N2563   1.339       .  A
C2558      C2559   1.398       .  A
C2558      H2569   1.083       .  S
C2559      C2568   1.369       .  A
C2559      C2560   1.381       .  A
C2560      C2561   1.412       .  A
C2560      N2566   1.351       .  A
C2561      C2562   1.411       .  A
C2561      H2570   1.082       .  S
C2562      C2565   1.388       .  A
N2563      C2564   1.354       .  A
N2563      H2573   1.044       .  S
C2564      C2565   1.401       .  A
C2565      H2571   1.082       .  S
N2566      C2567   1.363       .  A
N2566      H2574   1.044       .  S
C2567      C2568   1.399       .  A
C2568      H2572   1.081       .  S
C2575      C2580   1.385       .  A
C2575      C2576   1.405       .  A
C2575      N2581   1.344       .  A
C2576      C2577   1.403       .  A
C2576      H2587   1.083       .  S
C2577      C2586   1.377       .  A
C2577      C2578   1.381       .  A
C2578      C2579   1.407       .  A
C2578      N2584   1.348       .  A
C2579      C2580   1.408       .  A
C2579      H2588   1.082       .  S
C2580      C2583   1.383       .  A
N2581      C2582   1.358       .  A
N2581      H2591   1.045       .  S
C2582      C2583   1.398       .  A
C2583      H2589   1.082       .  S
N2584      C2585   1.359       .  A
N2584      H2592   1.044       .  S
C2585      C2586   1.399       .  A
C2586      H2590   1.082       .  S
C2593      C2598   1.383       .  A
C2593      C2594   1.407       .  A
C2593      N2599   1.343   1_655  A
C2594      C2595   1.405       .  A
C2595      C2604   1.386       .  A
C2595      C2596   1.384       .  A
C2596      C2597   1.410       .  A
C2596      N2602   1.346       .  A
C2597      C2598   1.407       .  A
C2597      H2606   1.082       .  S
C2598      C2601   1.389       .  A
N2599      C2600   1.356       .  A
C2600      C2601   1.398   1_455  A
C2601      H2607   1.082       .  S
N2602      C2603   1.360       .  A
N2602      H2610   1.045       .  S
C2603      C2604   1.398       .  A
C2604      H2608   1.082       .  S
C2611      C2616   1.383       .  A
C2611      C2612   1.399       .  A
C2611      N2617   1.337       .  A
C2612      C2613   1.395       .  A
C2612      H2623   1.083       .  S
C2613      C2622   1.368       .  A
C2613      C2614   1.381       .  A
C2614      N2620   1.348       .  A
C2615      H2624   1.082       .  S
N2617      C2618   1.357       .  A
N2617      H2627   1.042       .  S
C2619      H2625   1.082       .  S
N2620      C2621   1.358       .  A
N2620      H2628   1.044   1_655  S
C2621      C2622   1.393       .  A
C2622      H2626   1.081       .  S
C2629      C2634   1.384       .  A
C2629      C2630   1.408   1_545  A
C2629      N2635   1.346       .  A
C2630      C2631   1.406   1_565  A
C2630      H3709   1.082       .  S
C2631      C2640   1.385   1_545  A
C2631      C2632   1.382       .  A
C2632      C2633   1.405       .  A
C2632      N2638   1.342       .  A
C2633      C2634   1.404       .  A
C2633      H2642   1.083       .  S
C2634      C2637   1.381       .  A
N2635      C2636   1.358       .  A
N2635      H2645   1.045       .  S
C2636      C2637   1.397       .  A
C2637      H2643   1.083       .  S
N2638      C2639   1.358       .  A
N2638      H2646   1.043       .  S
C2639      C2640   1.399   1_545  A
C2640      H3712   1.082       .  S
H2641      C3698   1.082       .  S
H2644      C3708   1.082       .  S
C2647      C2652   1.383       .  A
C2647      C2648   1.409   1_545  A
C2647      N3721   1.346   1_545  A
C2648      C2649   1.407   1_565  A
C2648      H3727   1.082       .  S
C2649      C2658   1.387       .  A
C2649      C2650   1.382       .  A
C2650      C2651   1.410       .  A
C2650      N2656   1.346       .  A
C2651      C2652   1.408       .  A
C2651      H2660   1.082       .  S
C2652      C2655   1.388       .  A
N2653      C3715   1.340       .  A
N2653      C3722   1.356       .  A
N2653      H2663   1.045       .  S
C2654      C2655   1.399       .  A
C2654      N3721   1.358   1_545  A
C2655      H2661   1.082       .  S
N2656      C2657   1.360       .  A
N2656      H2664   1.043       .  S
C2657      C2658   1.400       .  A
C2658      H2662   1.082       .  S
H2659      C3716   1.083       .  S
C2665      C2670   1.382       .  A
C2665      N2671   1.339       .  A
C2666      C2667   1.399       .  A
C2666      H2677   1.083       .  S
C2667      C2676   1.373       .  A
C2668      C2669   1.414       .  A
C2669      C2670   1.412       .  A
C2669      H2678   1.082       .  S
C2670      C2673   1.391       .  A
N2671      C2672   1.355       .  A
C2672      C2673   1.402       .  A
C2673      H2679   1.082       .  S
N2674      C2675   1.360       .  A
C2675      C2676   1.397       .  A
C2676      H2680   1.082       .  S
C2683      C2688   1.385       .  A
C2683      C2684   1.406       .  A
C2683      N2689   1.343       .  A
C2684      C3753   1.404       .  A
C2684      H2695   1.083       .  S
C2685      C3752   1.399       .  A
C2685      C2694   1.371       .  A
C2685      C2686   1.383       .  A
C2686      C2687   1.406       .  A
C2686      N2692   1.348       .  A
C2687      C3756   1.407       .  A
C2687      H2696   1.082       .  S
C2688      C3755   1.402   1_545  A
C2688      C2691   1.380       .  A
N2689      C2690   1.358       .  A
N2689      H2699   1.045       .  S
C2690      C2691   1.395       .  A
C2691      H2697   1.082       .  S
N2692      C2693   1.357       .  A
N2692      H2700   1.044       .  S
C2693      C2694   1.392       .  A
C2694      H2698   1.078       .  S
C2701      C2706   1.383       .  A
C2701      N2707   1.347       .  A
C2702      C2703   1.410       .  A
C2702      H2713   1.082   1_455  S
C2703      C2712   1.384   1_455  A
C2704      C2705   1.404       .  A
C2704      N2710   1.346       .  A
C2705      C2706   1.402       .  A
C2705      H2714   1.083       .  S
C2706      C2709   1.376       .  A
N2707      C2708   1.357       .  A
C2708      C2709   1.396       .  A
C2709      H2715   1.082       .  S
N2710      H2718   1.045       .  S
C2711      C2712   1.400       .  A
C2712      H2716   1.082       .  S
C2719      C2724   1.382       .  A
C2719      C2720   1.411       .  A
C2719      N2725   1.346       .  A
C2720      C2721   1.408       .  A
C2720      H2731   1.083       .  S
C2721      C2730   1.390       .  A
C2721      C2722   1.383       .  A
C2722      C2723   1.410       .  A
C2722      N2728   1.346       .  A
C2723      C2724   1.408       .  A
C2723      H2732   1.082       .  S
C2724      C2727   1.390       .  A
N2725      C2726   1.361       .  A
N2725      H2735   1.043       .  S
C2726      C2727   1.401       .  A
C2727      H2733   1.082       .  S
N2728      C2729   1.358       .  A
N2728      H2736   1.045       .  S
C2729      C2730   1.398       .  A
C2730      H2734   1.082       .  S
C2737      C2742   1.382       .  A
C2737      C3806   1.413       .  A
C2737      N2743   1.350       .  A
C2738      C3805   1.406       .  A
C2738      C2739   1.404       .  A
C2738      H2749   1.082       .  S
C2739      C2748   1.380       .  A
C2739      C3808   1.383       .  A
C2740      C3807   1.383       .  A
C2740      C2741   1.396       .  A
C2740      N3814   1.336       .  A
C2741      C2742   1.395       .  A
C2741      H2750   1.083       .  S
C2742      C2745   1.369       .  A
N2743      C2744   1.363       .  A
N2743      H3821   1.044       .  S
C2744      C2745   1.395       .  A
C2745      H2751   1.081       .  S
N2746      C3808   1.337       .  A
N2746      C2747   1.354       .  A
N2746      H3822   1.042       .  S
C2747      C2748   1.397       .  A
C2748      H2752   1.082       .  S
H2753      N3811   1.044       .  S
H2754      N3814   1.043       .  S
C2755      C2760   1.383       .  A
C2755      C2756   1.402       .  A
C2755      N2761   1.340       .  A
C2756      C2757   1.400       .  A
C2756      H2767   1.083       .  S
C2757      C2766   1.379       .  A
C2757      C2758   1.384       .  A
C2758      C2759   1.411       .  A
C2758      N2764   1.348       .  A
C2759      C2760   1.409       .  A
C2759      H2768   1.082       .  S
C2760      C2763   1.389       .  A
N2761      C2762   1.354       .  A
N2761      H2771   1.042       .  S
C2762      C2763   1.400       .  A
C2763      H2769   1.082       .  S
N2764      C2765   1.360       .  A
N2764      H2772   1.045       .  S
C2765      C2766   1.394       .  A
C2766      H2770   1.082       .  S
C2773      C2778   1.383       .  A
C2773      C2774   1.399       .  A
C2773      N2779   1.339       .  A
C2774      C2775   1.398       .  A
C2774      H2785   1.083       .  S
C2775      C2784   1.371       .  A
C2776      C2777   1.410       .  A
C2776      N2782   1.349       .  A
C2777      H2786   1.082       .  S
C2778      C2781   1.386       .  A
N2779      C2780   1.355       .  A
N2779      H2789   1.045       .  S
C2780      C2781   1.400       .  A
N2782      C2783   1.361       .  A
N2782      H2790   1.044       .  S
C2784      H2788   1.081       .  S
C2791      C2796   1.387       .  A
C2791      C2792   1.401       .  A
C2791      N2797   1.341       .  A
C2792      C2793   1.399       .  A
C2792      H2803   1.083       .  S
C2793      C3870   1.374       .  A
C2793      C2794   1.381       .  A
C2794      C2795   1.404       .  A
C2794      N3868   1.344       .  A
C2795      C2796   1.404       .  A
C2795      H2804   1.082       .  S
C2796      C2799   1.380       .  A
N2797      C2798   1.354       .  A
N2797      H2807   1.045       .  S
C2798      C2799   1.395       .  A
C2799      H2805   1.082       .  S
N2800      C3862   1.341   1_545  A
N2800      C2801   1.358       .  A
N2800      H2808   1.044       .  S
C2801      C2802   1.398   1_545  A
C2802      C3861   1.376       .  A
C2802      H2806   1.081       .  S
C2809      C2810   1.403       .  A
C2809      N2815   1.341       .  A
C2810      H2821   1.083       .  S
C2811      C2820   1.384       .  A
C2811      C2812   1.384       .  A
C2812      C2813   1.410       .  A
C2812      N2818   1.346       .  A
C2813      C2814   1.407       .  A
C2813      H2822   1.082       .  S
C2814      C2817   1.386       .  A
N2815      C2816   1.356       .  A
N2815      H2825   1.043       .  S
C2817      H2823   1.082       .  S
N2818      C2819   1.360       .  A
N2818      H2826   1.045       .  S
C2819      C2820   1.398       .  A
C2827      C2832   1.384       .  A
C2827      C2828   1.408       .  A
C2827      N2833   1.345       .  A
C2828      C2829   1.405       .  A
C2828      H2839   1.082       .  S
C2829      C2838   1.384       .  A
C2829      C2830   1.382       .  A
C2830      C2831   1.410       .  A
C2830      N2836   1.346       .  A
C2831      C2832   1.408       .  A
C2831      H2840   1.083       .  S
C2832      C2835   1.388       .  A
N2833      C2834   1.358       .  A
N2833      H2843   1.045       .  S
C2834      C2835   1.398       .  A
C2835      H2841   1.082       .  S
N2836      C2837   1.360       .  A
N2836      H2844   1.042       .  S
C2837      C2838   1.399       .  A
C2838      H2842   1.082       .  S
C2845      C2850   1.380       .  A
C2845      C2846   1.415       .  A
C2845      N2851   1.352       .  A
C2846      C3915   1.414       .  A
C2846      H2857   1.082       .  S
C2847      C3914   1.408       .  A
C2847      C2856   1.389       .  A
C2847      C2848   1.381       .  A
C2848      C2849   1.399       .  A
C2848      N2854   1.336       .  A
C2849      C3918   1.398       .  A
C2849      H2858   1.083       .  S
C2850      C3917   1.393       .  A
C2850      C2853   1.365       .  A
N2851      C2852   1.365       .  A
N2851      H2861   1.044       .  S
C2852      C2853   1.397       .  A
C2853      H2859   1.079       .  S
N2854      C2855   1.355       .  A
N2854      H2862   1.042       .  S
C2855      C2856   1.400       .  A
C2856      H2860   1.082       .  S
C2863      C2868   1.385       .  A
C2863      C2864   1.402       .  A
C2863      N2869   1.346       .  A
C2864      C2865   1.403       .  A
C2864      H2875   1.082       .  S
C2865      C2874   1.374       .  A
C2865      C2866   1.385       .  A
C2866      C2867   1.403       .  A
C2866      N2872   1.346       .  A
C2867      C2868   1.403       .  A
C2867      H2876   1.083       .  S
C2868      C2871   1.375       .  A
N2869      C2870   1.353       .  A
N2869      H2879   1.044       .  S
C2870      C2871   1.394       .  A
C2871      H2877   1.081       .  S
N2872      C2873   1.355       .  A
N2872      H2880   1.045       .  S
C2873      C2874   1.397       .  A
C2874      H2878   1.083       .  S
C2881      C2886   1.384       .  A
C2881      C2882   1.406       .  A
C2881      N2887   1.349       .  A
C2882      C2883   1.407       .  A
C2882      H3961   1.082       .  S
C2883      C2892   1.378       .  A
C2883      C2884   1.383       .  A
C2884      C2885   1.404       .  A
C2884      N2890   1.348       .  A
C2885      C2886   1.405       .  A
C2885      H2894   1.082       .  S
C2886      C2889   1.376       .  A
N2887      C2888   1.356       .  A
N2887      H3965   1.045       .  S
C2888      C2889   1.397       .  A
C2889      H2895   1.083       .  S
N2890      C2891   1.358       .  A
N2890      H2898   1.044       .  S
C2891      C2892   1.401       .  A
C2892      H2896   1.080       .  S
H2893      C3950   1.083       .  S
H2897      N3955   1.044       .  S
C2899      C2904   1.381       .  A
C2899      C2900   1.406       .  A
C2899      N2905   1.347       .  A
C2900      C2901   1.406       .  A
C2900      H2911   1.083       .  S
C2901      C2910   1.380       .  A
C2901      C2902   1.385       .  A
C2902      C2903   1.409       .  A
C2902      N2908   1.350       .  A
C2903      C2904   1.408       .  A
C2903      H3980   1.082       .  S
C2904      C2907   1.383       .  A
N2905      C2906   1.359       .  A
N2905      H2915   1.044       .  S
C2906      C2907   1.402       .  A
C2907      H3981   1.082       .  S
N2908      C2909   1.359       .  A
N2908      H2916   1.045       .  S
C2909      C2910   1.399       .  A
C2910      H2914   1.083       .  S
H2912      C3971   1.082   1_545  S
H2913      C3975   1.082       .  S
C2917      C2922   1.384       .  A
C2917      C2918   1.397       .  A
C2917      N2923   1.339       .  A
C2918      C2919   1.398       .  A
C2918      H2929   1.083       .  S
C2919      C2928   1.366       .  A
C2919      C2920   1.380       .  A
C2920      C2921   1.412       .  A
C2920      N2926   1.352       .  A
C2921      C2922   1.412       .  A
C2921      H2930   1.082       .  S
C2922      C2925   1.387       .  A
N2923      C2924   1.353       .  A
N2923      H2933   1.043       .  S
C2924      C2925   1.400       .  A
C2925      H2931   1.082       .  S
N2926      C2927   1.363       .  A
N2926      H2934   1.044       .  S
C2927      C2928   1.400       .  A
C2928      H2932   1.079       .  S
C2935      C2940   1.387       .  A
C2935      C2936   1.402       .  A
C2935      N2941   1.341       .  A
C2936      C2937   1.399       .  A
C2936      H2947   1.083       .  S
C2937      C2946   1.374       .  A
C2937      C2938   1.382       .  A
C2938      C2939   1.403       .  A
C2938      N2944   1.343       .  A
C2939      C2940   1.403       .  A
C2939      H2948   1.082       .  S
C2940      C2943   1.379       .  A
N2941      C2942   1.355       .  A
N2941      H2951   1.045       .  S
C2942      C2943   1.394       .  A
C2943      H2949   1.082       .  S
N2944      C2945   1.358       .  A
N2944      H2952   1.044       .  S
C2945      C2946   1.396       .  A
C2946      H2950   1.082       .  S
C2953      C2958   1.384       .  A
C2953      C2954   1.405       .  A
C2953      N2959   1.340       .  A
C2954      C2955   1.401       .  A
C2955      C2964   1.383       .  A
C2955      C2956   1.380       .  A
C2956      C2957   1.407       .  A
C2956      N2962   1.340       .  A
C2957      C2958   1.404       .  A
C2957      H2966   1.083       .  S
C2958      C2961   1.386       .  A
N2959      C2960   1.356       .  A
C2960      C2961   1.396       .  A
C2961      H2967   1.082       .  S
N2962      C2963   1.360       .  A
N2962      H2970   1.040       .  S
C2963      C2964   1.399       .  A
C2964      H2968   1.082       .  S
C2971      C2976   1.384       .  A
C2971      C2972   1.406       .  A
C2971      N2977   1.344       .  A
C2972      C2973   1.404       .  A
C2972      H2983   1.082       .  S
C2973      C2982   1.383       .  A
C2973      C2974   1.383       .  A
C2974      C2975   1.402       .  A
C2974      N2980   1.339       .  A
C2975      C2976   1.400       .  A
C2975      H2984   1.083       .  S
C2976      C2979   1.376       .  A
N2977      C2978   1.356       .  A
N2977      H2987   1.045       .  S
C2978      C2979   1.393       .  A
C2979      H2985   1.083       .  S
N2980      C2981   1.355       .  A
N2980      H2988   1.043       .  S
C2981      C2982   1.397       .  A
C2982      H2986   1.082       .  S
C2989      C2994   1.381       .  A
C2989      C2990   1.403       .  A
C2989      N2995   1.343       .  A
C2990      C2991   1.403       .  A
C2990      H3001   1.083       .  S
C2991      C3000   1.378       .  A
C2991      C2992   1.387       .  A
C2993      H3002   1.082       .  S
C2994      C2997   1.378       .  A
N2995      C2996   1.358       .  A
N2995      H3005   1.044       .  S
C2996      C2997   1.397       .  A
N2998      H3006   1.045       .  S
C2999      C3000   1.397       .  A
C3000      H3004   1.083       .  S
C3007      C3012   1.382       .  A
C3007      C3008   1.406       .  A
C3007      N3013   1.346       .  A
C3008      C3009   1.406       .  A
C3008      H3019   1.082       .  S
C3009      C3018   1.383       .  A
C3009      C3010   1.385       .  A
C3010      C3011   1.403       .  A
C3010      N3016   1.342       .  A
C3011      C3012   1.401       .  A
C3011      H3020   1.083       .  S
C3012      C3015   1.377       .  A
N3013      C3014   1.358       .  A
N3013      H3023   1.044       .  S
C3014      C3015   1.397       .  A
C3015      H3021   1.082       .  S
N3016      C3017   1.357       .  A
N3016      H3024   1.045       .  S
C3017      C3018   1.397       .  A
C3018      H3022   1.082       .  S
C3025      C3030   1.383       .  A
C3025      N3031   1.351       .  A
C3026      H3037   1.083       .  S
C3027      C3028   1.383   1_455  A
C3028      C3029   1.404       .  A
C3028      N3034   1.348       .  A
C3029      C3030   1.405       .  A
C3029      H3038   1.082       .  S
C3030      C3033   1.376       .  A
N3031      C3032   1.359       .  A
C3032      C3033   1.397       .  A
C3033      H3039   1.082       .  S
N3034      C3035   1.357       .  A
N3034      H3042   1.044       .  S
C3036      H3040   1.080       .  S
C3043      C3048   1.384       .  A
C3043      C3044   1.405       .  A
C3043      N3049   1.340       .  A
C3044      C3045   1.401       .  A
C3044      H3055   1.082       .  S
C3045      C3054   1.381       .  A
C3045      C3046   1.381       .  A
C3046      C3047   1.406       .  A
C3046      N3052   1.341       .  A
C3047      C3048   1.404       .  A
C3047      H3056   1.083       .  S
C3048      C3051   1.385       .  A
N3049      C3050   1.356       .  A
N3049      H3059   1.041       .  S
C3050      C3051   1.395       .  A
C3051      H3057   1.082       .  S
N3052      C3053   1.359       .  A
N3052      H3060   1.042       .  S
C3053      C3054   1.398       .  A
C3054      H3058   1.082       .  S
C3061      C3066   1.380   1_565  A
C3061      C3062   1.414       .  A
C3061      N3067   1.351       .  A
C3062      C3063   1.412       .  A
C3062      H3073   1.082       .  S
C3063      C3072   1.390       .  A
C3063      C3064   1.381   1_565  A
C3064      C3065   1.395       .  A
C3064      N3070   1.334       .  A
C3065      C3066   1.395       .  A
C3065      H3074   1.083       .  S
C3066      C3069   1.365       .  A
N3067      C3068   1.364   1_565  A
N3067      H3077   1.045       .  S
C3068      C3069   1.395       .  A
C3069      H3075   1.082       .  S
N3070      C3071   1.352       .  A
N3070      H3078   1.039       .  S
C3071      C3072   1.404   1_545  A
C3072      H4144   1.082       .  S
H3076      C4140   1.082       .  S
C3079      C3084   1.384       .  A
C3079      C3080   1.412   1_545  A
C3079      N3085   1.348   1_545  A
C3080      C3081   1.409   1_565  A
C3080      H3091   1.082       .  S
C3081      C3090   1.389       .  A
C3081      C3082   1.382       .  A
C3082      C3083   1.403       .  A
C3082      N3088   1.340       .  A
C3083      C3084   1.402       .  A
C3083      H3092   1.083       .  S
C3084      C3087   1.380       .  A
N3085      C3086   1.360   1_565  A
N3085      H3095   1.045       .  S
C3086      C3087   1.396       .  A
C3087      H3093   1.083       .  S
N3088      C3089   1.356       .  A
N3088      H3096   1.042       .  S
C3089      C3090   1.400       .  A
C3090      H3094   1.082   1_545  S
C3097      C3102   1.383       .  A
C3097      C3098   1.402       .  A
C3097      N3103   1.339       .  A
C3098      C3099   1.401       .  A
C3098      H3109   1.083       .  S
C3099      C3108   1.378   1_556  A
C3099      C3100   1.386       .  A
C3100      C3101   1.403       .  A
C3100      N3106   1.340       .  A
C3101      C3102   1.400       .  A
C3101      H3110   1.083       .  S
C3102      C3105   1.379       .  A
N3103      C3104   1.355       .  A
N3103      H3113   1.044       .  S
C3104      C3105   1.395       .  A
C3105      H3111   1.082       .  S
N3106      C3107   1.355   1_556  A
N3106      H3114   1.045       .  S
C3107      C3108   1.394       .  A
C3108      H3112   1.083       .  S
C3115      C3120   1.384       .  A
C3115      C3116   1.406       .  A
C3115      N3121   1.343       .  A
C3116      C3117   1.404       .  A
C3116      H3127   1.082       .  S
C3117      C3126   1.383       .  A
C3117      C3118   1.383       .  A
C3118      C3119   1.409       .  A
C3119      C3120   1.407       .  A
C3120      C3123   1.387       .  A
N3121      C3122   1.356       .  A
N3121      H3131   1.045       .  S
C3122      C3123   1.396       .  A
C3123      H3129   1.082       .  S
N3124      H3132   1.042       .  S
C3125      C3126   1.398       .  A
C3126      H3130   1.082   1_556  S
C3133      C3138   1.380       .  A
C3133      C3134   1.414       .  A
C3133      N3139   1.355       .  A
C3134      C3135   1.416       .  A
C3134      H3145   1.082       .  S
C3135      C3144   1.391       .  A
C3135      C3136   1.383       .  A
C3136      C3137   1.399       .  A
C3136      N3142   1.339       .  A
C3137      C3138   1.397       .  A
C3137      H3146   1.083       .  S
C3138      C3141   1.368       .  A
N3139      C3140   1.362   1_556  A
N3139      H3149   1.044       .  S
C3140      C3141   1.396   1_554  A
C3141      H3147   1.079       .  S
N3142      C3143   1.357       .  A
N3142      H3150   1.043       .  S
C3143      C3144   1.405       .  A
C3144      H3148   1.082       .  S
C3151      C3156   1.385       .  A
C3151      C3152   1.402       .  A
C3151      N3157   1.346   1_556  A
C3152      C3153   1.401       .  A
C3152      H3163   1.083       .  S
C3153      C3162   1.372       .  A
C3153      C3154   1.383       .  A
C3154      C3155   1.411       .  A
C3154      N3160   1.354       .  A
C3155      C3156   1.413       .  A
C3155      H3164   1.082       .  S
C3156      C3159   1.385       .  A
N3157      C3158   1.354       .  A
N3157      H3167   1.045       .  S
C3158      C3159   1.403   1_554  A
C3159      H3165   1.082       .  S
N3160      C3161   1.360       .  A
N3160      H3168   1.044       .  S
C3161      C3162   1.393       .  A
C3162      H3166   1.078       .  S
C3169      C3174   1.383       .  A
C3169      C3170   1.399       .  A
C3169      N3175   1.340       .  A
C3170      C3171   1.399       .  A
C3170      H3181   1.083       .  S
C3171      C3180   1.373       .  A
C3171      C3172   1.385       .  A
C3172      C3173   1.405       .  A
C3172      N3178   1.345       .  A
C3173      C3174   1.404       .  A
C3173      H3182   1.083       .  S
C3174      C3177   1.378       .  A
N3175      C3176   1.355       .  A
N3175      H3185   1.044       .  S
C3176      C3177   1.399       .  A
C3177      H3183   1.082       .  S
N3178      C3179   1.356   1_556  A
N3178      H3186   1.045   1_556  S
C3179      C3180   1.393   1_554  A
C3180      H3184   1.083       .  S
C3187      C3192   1.383       .  A
C3187      C3188   1.410       .  A
C3187      N3193   1.348       .  A
C3188      C3189   1.408       .  A
C3188      H3199   1.082       .  S
C3189      C3198   1.387       .  A
C3189      C3190   1.382       .  A
C3190      C3191   1.399       .  A
C3190      N3196   1.338       .  A
C3191      C3192   1.398       .  A
C3191      H3200   1.083       .  S
C3192      C3195   1.372       .  A
N3193      C3194   1.360       .  A
N3193      H3203   1.044       .  S
C3194      C3195   1.397       .  A
C3195      H3201   1.082       .  S
N3196      C3197   1.355   1_556  A
N3196      H3204   1.043       .  S
C3197      C3198   1.400   1_554  A
C3198      H3202   1.082       .  S
C3205      C3206   1.537       .  S
C3205      C3211   1.517       .  S
C3205      C3209   1.540       .  S
C3205      C3539   1.509       .  S
C3206      H3213   1.086       .  S
C3206      C3207   1.372       .  D
C3207      C3208   1.546       .  S
C3207      C4244   1.488       .  S
C3208      C3212   1.538       .  S
C3208      C3210   1.547       .  S
C3208      H3214   1.105       .  S
C3209      H3215   1.085   1_565  S
C3209      C3210   1.374       .  D
C3210      C4262   1.479       .  S
C3211      H3216   1.065       .  S
C3211      C3212   1.350       .  D
C3212      C3260   1.485       .  S
C3217      C3218   1.544       .  S
C3217      C3223   1.522       .  S
C3217      C3221   1.556       .  S
C3217      C3542   1.533       .  S
C3218      H3225   1.086       .  S
C3218      C3219   1.377       .  D
C3219      C3220   1.552       .  S
C3219      C4229   1.490       .  S
C3220      C3224   1.546       .  S
C3220      C3222   1.543       .  S
C3220      H3226   1.107       .  S
C3221      H3227   1.085       .  S
C3221      C3222   1.375       .  D
C3222      C4211   1.499       .  S
C3223      H3228   1.072       .  S
C3223      C3224   1.350       .  D
C3224      C3251   1.491       .  S
C3229      C3230   1.539       .  S
C3229      C3235   1.507       .  S
C3229      C3233   1.540       .  S
C3229      C3530   1.512       .  S
C3230      H3237   1.086       .  S
C3230      C3231   1.378       .  D
C3231      C3232   1.555       .  S
C3231      C4172   1.485       .  S
C3232      C3236   1.553       .  S
C3232      C3234   1.543       .  S
C3232      H3238   1.111       .  S
C3233      H3239   1.087       .  S
C3233      C3234   1.367       .  D
C3234      C4190   1.477       .  S
C3235      H3240   1.066       .  S
C3235      C3236   1.345       .  D
C3236      C3256   1.486       .  S
Fe3241     O3257   2.077       .  S
Fe3241     O3247   2.070       .  S
Fe3241     O3254   2.077       .  S
Fe3241     O3246   2.086       .  S
Fe3241     O3252   1.957       .  S
Fe3242     O3245   2.084       .  S
Fe3242     O3249   2.090       .  S
Fe3242     O3253   2.094       .  S
Fe3242     O3258   2.089       .  S
Fe3242     O3252   1.964       .  S
Fe3243     O3261   2.090       .  S
Fe3243     O3248   2.094       .  S
Fe3243     O3255   2.100       .  S
Fe3243     O3244   2.102       .  S
Fe3243     O3252   1.956       .  S
O3244      C3251   1.275       .  A
O3245      C3259   1.268       .  A
O3246      C3251   1.270       .  A
O3247      C3250   1.271       .  A
O3248      C3260   1.277       .  A
O3249      C3262   1.277       .  A
C3250      C3485   1.523       .  S
C3250      O3255   1.277       .  A
O3253      C3256   1.271       .  A
O3254      C3256   1.270       .  A
O3257      C3262   1.271       .  A
O3258      C3260   1.275       .  A
C3259      C3509   1.522       .  S
C3259      O3261   1.275       .  A
C3262      C3497   1.517       .  S
C3263      C3264   1.418       .  A
C3263      C3268   1.404       .  A
C3263      C4265   1.481       .  S
C3264      C3265   1.407       .  A
C3264      C4226   1.492       .  S
C3265      H3270   1.084       .  S
C3266      C3267   1.425       .  A
C3266      C4139   1.498       .  S
C3267      C4154   1.486       .  S
C3268      H3269   1.084       .  S
C3271      C3272   1.547       .  S
C3271      C3277   1.521       .  S
C3271      C3275   1.552       .  S
C3271      C3448   1.534       .  S
C3272      H3279   1.087       .  S
C3272      C3273   1.365       .  D
C3273      C3274   1.540       .  S
C3273      C4118   1.485       .  S
C3274      C3278   1.547       .  S
C3274      C3276   1.547       .  S
C3274      H3280   1.111       .  S
C3275      H3281   1.085       .  S
C3275      C3276   1.385       .  D
C3276      C4157   1.491       .  S
C3277      H3282   1.077       .  S
C3277      C3278   1.352       .  D
C3278      C3316   1.483       .  S
C3283      C3284   1.544       .  S
C3283      C3289   1.509       .  S
C3283      C3287   1.545       .  S
C3283      C3460   1.518       .  S
C3284      H3291   1.086   1_655  S
C3284      C3285   1.377       .  D
C3285      C3286   1.545       .  S
C3285      C4100   1.481       .  S
C3286      C3290   1.541       .  S
C3286      C3288   1.544       .  S
C3286      H3292   1.109       .  S
C3287      H3293   1.085       .  S
C3287      C3288   1.377       .  D
C3288      C4082   1.487       .  S
C3289      H3294   1.068       .  S
C3289      C3290   1.344       .  D
C3290      C3328   1.477       .  S
C3295      C3296   1.555       .  S
C3295      C3301   1.522       .  S
C3295      C3299   1.538       .  S
C3295      C3457   1.519       .  S
C3296      H3303   1.085       .  S
C3296      C3297   1.375       .  D
C3297      C3298   1.537       .  S
C3297      C4136   1.491       .  S
C3298      C3302   1.532       .  S
C3298      C3300   1.550       .  S
C3298      H3304   1.103       .  S
C3299      H3305   1.085       .  S
C3299      C3300   1.378       .  D
C3300      C4064   1.490       .  S
C3301      H3306   1.072       .  S
C3301      C3302   1.348       .  D
C3302      C3325   1.487       .  S
Fe3307     O3323   2.085       .  S
Fe3307     O3313   2.069       .  S
Fe3307     O3320   2.058       .  S
Fe3307     O3312   2.087       .  S
Fe3307     O3318   1.947       .  S
Fe3308     O3311   2.095       .  S
Fe3308     O3315   2.076       .  S
Fe3308     O3319   2.108       .  S
Fe3308     O3324   2.075       .  S
Fe3308     O3318   1.954       .  S
Fe3309     O3327   2.091       .  S
Fe3309     O3314   2.101       .  S
Fe3309     O3321   2.105       .  S
Fe3309     O3310   2.088       .  S
Fe3309     O3318   1.946       .  S
O3310      C3317   1.276       .  A
O3311      C3325   1.275       .  A
O3312      C3317   1.275       .  A
O3313      C3316   1.265       .  A
O3314      C3326   1.278       .  A
O3315      C3328   1.267       .  A
C3316      O3321   1.277       .  A
C3317      C3403   1.523       .  S
O3319      C3322   1.280       .  A
O3320      C3322   1.267       .  A
C3322      C3415   1.516       .  S
O3323      C3328   1.273       .  A
O3324      C3326   1.271       .  A
C3325      O3327   1.276       .  A
C3326      C3427   1.524       .  S
C3329      C3330   1.422       .  A
C3329      C3334   1.408       .  A
C3329      C4193   1.497   1_554  S
C3330      C3331   1.406       .  A
C3330      C4247   1.483       .  S
C3331      H3336   1.084       .  S
C3332      C3333   1.422       .  A
C3332      C4103   1.494       .  S
C3333      C4067   1.479       .  S
C3334      H3335   1.084       .  S
C3337      C3338   1.421       .  A
C3337      C3342   1.411       .  A
C3337      C4208   1.504       .  S
C3338      C3339   1.404       .  A
C3338      C4175   1.484       .  S
C3339      C3340   1.407       .  A
C3339      H3344   1.083       .  S
C3340      C3341   1.425       .  A
C3340      C4121   1.506       .  S
C3341      C3342   1.415       .  A
C3341      C4085   1.485       .  S
C3342      H3343   1.083       .  S
C3345      C3346   1.541       .  S
C3345      C3349   1.553       .  S
C3345      C3588   1.532       .  S
C3346      H3353   1.087       .  S
C3347      C3348   1.544       .  S
C3347      C4028   1.482       .  S
C3348      C3352   1.548       .  S
C3348      C3350   1.548       .  S
C3348      H3354   1.110       .  S
C3349      H3355   1.085       .  S
C3350      C4049   1.495       .  S
C3351      C3352   1.350       .  D
C3352      C3396   1.491       .  S
C3357      C3358   1.553       .  S
C3357      C3363   1.519       .  S
C3357      C3361   1.535       .  S
C3357      C3597   1.516       .  S
C3358      H3365   1.085       .  S
C3358      C3359   1.378       .  D
C3359      C3360   1.543       .  S
C3359      C3995   1.493       .  S
C3360      C3364   1.530       .  S
C3360      C3362   1.544       .  S
C3360      H3366   1.105       .  S
C3361      H3367   1.086       .  S
C3361      C3362   1.375       .  D
C3362      C4013   1.479       .  S
C3363      H3368   1.071       .  S
C3363      C3364   1.348       .  D
C3364      C3400   1.482       .  S
C3369      C3370   1.546       .  S
C3369      C3373   1.540       .  S
C3369      C3600   1.518       .  S
C3370      H3377   1.087       .  S
C3371      C3372   1.547       .  S
C3371      C3956   1.486       .  S
C3372      C3376   1.547       .  S
C3372      C3374   1.546       .  S
C3372      H3378   1.109       .  S
C3373      H3379   1.085       .  S
C3374      C3974   1.495       .  S
C3375      C3376   1.343       .  D
C3376      C3391   1.482       .  S
Fe3381     O3397   2.080       .  S
Fe3381     O3387   2.076       .  S
Fe3381     O3394   2.078       .  S
Fe3381     O3386   2.081       .  S
Fe3381     O3392   1.945       .  S
Fe3382     O3385   2.114       .  S
Fe3382     O3389   2.088       .  S
Fe3382     O3393   2.110       .  S
Fe3382     O3398   2.083       .  S
Fe3382     O3392   1.954       .  S
Fe3383     O3401   2.074       .  S
Fe3383     O3388   2.094       .  S
Fe3383     O3395   2.102       .  S
Fe3383     O3384   2.087       .  S
Fe3383     O3392   1.952       .  S
O3384      C3391   1.270       .  A
O3385      C3399   1.278       .  A
O3386      C3391   1.273       .  A
O3387      C3390   1.271       .  A
O3388      C3400   1.276       .  A
O3389      C3402   1.276       .  A
C3390      C3543   1.523       .  S
C3390      O3395   1.278       .  A
O3393      C3396   1.277       .  A
O3394      C3396   1.266       .  A
O3397      C3402   1.276       .  A
O3398      C3400   1.275       .  A
C3399      C3567   1.530       .  S
C3399      O3401   1.269       .  A
C3402      C3555   1.516       .  S
C3403      C3404   1.542       .  S
C3403      C3409   1.522       .  S
C3403      C3407   1.551       .  S
C3404      H3411   1.086       .  S
C3404      C3405   1.374       .  D
C3405      C3406   1.548       .  S
C3405      C3938   1.484       .  S
C3406      C3410   1.537       .  S
C3406      C3408   1.540       .  S
C3406      H3412   1.107       .  S
C3407      H3413   1.085       .  S
C3407      C3408   1.374       .  D
C3408      C3920   1.490       .  S
C3409      H3414   1.075       .  S
C3409      C3410   1.351       .  D
C3410      C3449   1.477       .  S
C3415      C3416   1.538       .  S
C3415      C3421   1.510       .  S
C3415      C3419   1.543       .  S
C3416      H3423   1.086       .  S
C3416      C3417   1.374       .  D
C3417      C3418   1.544       .  S
C3417      C3884   1.479       .  S
C3418      C3422   1.553       .  S
C3418      C3420   1.552       .  S
C3418      H3424   1.111       .  S
C3419      H3425   1.086       .  S
C3419      C3420   1.373       .  D
C3420      C3902   1.487       .  S
C3421      H3426   1.067       .  S
C3421      C3422   1.348       .  D
C3422      C3454   1.485       .  S
C3427      C3428   1.537       .  S
C3427      C3433   1.523       .  S
C3427      C3431   1.556       .  S
C3428      H3435   1.085       .  S
C3428      C3429   1.377       .  D
C3429      C3430   1.548       .  S
C3429      C3869   1.484       .  S
C3430      C3434   1.533       .  S
C3430      C3432   1.538       .  S
C3430      H3436   1.104       .  S
C3431      H3437   1.085       .  S
C3431      C3432   1.378       .  D
C3432      C3851   1.495   1_655  S
C3433      H3438   1.072       .  S
C3433      C3434   1.349       .  D
C3434      C3458   1.487       .  S
Fe3439     O3444   2.079       .  S
Fe3439     O3450   1.954       .  S
Fe3440     O3443   2.070       .  S
Fe3440     O3447   2.097       .  S
Fe3440     O3451   2.075       .  S
Fe3440     O3456   2.089   1_565  S
Fe3441     O3446   2.086       .  S
Fe3441     O3453   2.080       .  S
Fe3441     O3442   2.079       .  S
O3442      C3449   1.269       .  A
O3445      C3448   1.278       .  A
O3447      C3460   1.277       .  A
C3448      O3453   1.278       .  A
O3451      C3454   1.267       .  A
O3452      C3454   1.278       .  A
O3455      C3460   1.269   1_455  A
C3457      O3459   1.273       .  A
C3461      C3462   1.425       .  A
C3461      C3466   1.406       .  A
C3461      C4046   1.488       .  S
C3462      C3463   1.407       .  A
C3462      C3992   1.490       .  S
C3463      C3464   1.406       .  A
C3463      H3468   1.084       .  S
C3464      C3465   1.418       .  A
C3464      C3941   1.483       .  S
C3465      C3466   1.405       .  A
C3465      C3848   1.490       .  S
C3466      H3467   1.084       .  S
C3469      C3470   1.422       .  A
C3469      C3474   1.410       .  A
C3469      C4010   1.482       .  S
C3470      C3471   1.403       .  A
C3470      C3959   1.497       .  S
C3471      C3472   1.405       .  A
C3471      H3476   1.084       .  S
C3472      C3473   1.419       .  A
C3472      C3866   1.473       .  S
C3473      C3474   1.408       .  A
C3473      C3905   1.499       .  S
C3474      H3475   1.084       .  S
C3477      C3478   1.422       .  A
C3477      C3482   1.409       .  A
C3477      C3977   1.487       .  S
C3478      C3479   1.405       .  A
C3478      C4031   1.489       .  S
C3479      C3480   1.401       .  A
C3479      H3484   1.084       .  S
C3480      C3481   1.417       .  A
C3480      C3887   1.485       .  S
C3481      C3482   1.406       .  A
C3481      C3923   1.485       .  S
C3482      H3483   1.084       .  S
C3485      C3486   1.547       .  S
C3485      C3491   1.523       .  S
C3485      C3489   1.543       .  S
C3486      H3493   1.085       .  S
C3486      C3487   1.374       .  D
C3487      C3488   1.538       .  S
C3487      C3812   1.477       .  S
C3488      C3492   1.534       .  S
C3488      C3490   1.548       .  S
C3488      H3494   1.108       .  S
C3489      H3495   1.086       .  S
C3489      C3490   1.374       .  D
C3490      C3830   1.485       .  S
C3491      H3496   1.071       .  S
C3491      C3492   1.350       .  D
C3492      C3536   1.478       .  S
C3497      C3498   1.554       .  S
C3497      C3503   1.510       .  S
C3497      C3501   1.540       .  S
C3498      H3505   1.085       .  S
C3498      C3499   1.379       .  D
C3499      C3500   1.544       .  S
C3499      C3797   1.492       .  S
C3500      C3504   1.536       .  S
C3500      C3502   1.544       .  S
C3500      H3506   1.107       .  S
C3501      H3507   1.086       .  S
C3501      C3502   1.372       .  D
C3502      C3776   1.479       .  S
C3503      H3508   1.066       .  S
C3503      C3504   1.342       .  D
C3504      C3531   1.473       .  S
C3509      C3510   1.546       .  S
C3509      C3515   1.515       .  S
C3509      C3513   1.540       .  S
C3510      H3517   1.084       .  S
C3510      C3511   1.383       .  D
C3511      C3512   1.548       .  S
C3511      C3743   1.488       .  S
C3512      C3516   1.534       .  S
C3512      C3514   1.538       .  S
C3512      H3518   1.106       .  S
C3513      H3519   1.086       .  S
C3513      C3514   1.371       .  D
C3514      C3761   1.483       .  S
C3515      H3520   1.067       .  S
C3515      C3516   1.349       .  D
C3516      C3540   1.478       .  S
Fe3522     O3529   2.094       .  S
Fe3522     O3533   2.073       .  S
Fe3523     O3535   2.081       .  S
Fe3523     O3524   2.078       .  S
O3524      C3531   1.269       .  A
O3525      C3539   1.271       .  A
O3526      C3531   1.268       .  A
O3527      C3530   1.270       .  A
O3528      C3540   1.276       .  A
O3529      C3542   1.277       .  A
C3530      O3535   1.271       .  A
O3533      C3536   1.267       .  A
O3534      C3536   1.270       .  A
O3537      C3542   1.278       .  A
O3538      C3540   1.274       .  A
C3539      O3541   1.266       .  A
C3543      C3544   1.544       .  S
C3543      C3549   1.509       .  S
C3543      C3547   1.546       .  S
C3544      H3551   1.086       .  S
C3545      C3546   1.550       .  S
C3545      C3707   1.490       .  S
C3546      C3550   1.545       .  S
C3546      C3548   1.542       .  S
C3546      H3552   1.110       .  S
C3547      H3553   1.086       .  S
C3548      C3722   1.481       .  S
C3549      H3554   1.069       .  S
C3550      C3594   1.478       .  S
C3555      C3556   1.536       .  S
C3555      C3561   1.516       .  S
C3555      C3559   1.551       .  S
C3556      H3563   1.087       .  S
C3557      C3558   1.547       .  S
C3557      C3668   1.480       .  S
C3558      C3562   1.535       .  S
C3558      C3560   1.542       .  S
C3558      H3564   1.105       .  S
C3559      H3565   1.085       .  S
C3560      C3686   1.493       .  S
C3561      H3566   1.071       .  S
C3562      C3589   1.480       .  S
C3567      C3568   1.543       .  S
C3567      C3573   1.520       .  S
C3567      C3571   1.555       .  S
C3568      H3575   1.085       .  S
C3568      C3569   1.382       .  D
C3569      C3570   1.548       .  S
C3569      C3653   1.490       .  S
C3570      C3574   1.530       .  S
C3570      C3572   1.534       .  S
C3570      H3576   1.106       .  S
C3571      H3577   1.086       .  S
C3571      C3572   1.376       .  D
C3572      C3635   1.489       .  S
C3573      H3578   1.070       .  S
C3573      C3574   1.350       .  D
C3574      C3598   1.485       .  S
Fe3579     O3595   2.058       .  S
Fe3579     O3585   2.076       .  S
Fe3579     O3592   2.076       .  S
Fe3579     O3584   2.079       .  S
Fe3579     O3590   1.952       .  S
Fe3580     O3583   2.073       .  S
Fe3580     O3587   2.100       .  S
Fe3580     O3591   2.083       .  S
Fe3580     O3596   2.088       .  S
Fe3580     O3590   1.966       .  S
Fe3581     O3599   2.083       .  S
Fe3581     O3586   2.093       .  S
Fe3581     O3593   2.102       .  S
Fe3581     O3582   2.086       .  S
Fe3581     O3590   1.953       .  S
O3582      C3589   1.271       .  A
O3583      C3597   1.269       .  A
O3584      C3589   1.270       .  A
O3585      C3588   1.271       .  A
O3586      C3598   1.276       .  A
O3587      C3600   1.277       .  A
C3588      O3593   1.280       .  A
O3591      C3594   1.268       .  A
O3592      C3594   1.270       .  A
O3595      C3600   1.269       .  A
O3596      C3598   1.273       .  A
C3597      O3599   1.274       .  A
C3601      C3602   1.417       .  A
C3601      C3606   1.407       .  A
C3601      C3740   1.483       .  S
C3602      C3603   1.408       .  A
C3602      C3833   1.492       .  S
C3603      C3604   1.410       .  A
C3603      H3608   1.084       .  S
C3604      C3605   1.423       .  A
C3604      C3632   1.492       .  S
C3605      C3606   1.407       .  A
C3605      C3671   1.492       .  S
C3606      H3607   1.084       .  S
C3609      C3610   1.420       .  A
C3609      C3614   1.408       .  A
C3609      C3794   1.494       .  S
C3610      C3611   1.400       .  A
C3610      C3758   1.481       .  S
C3611      C3612   1.402       .  A
C3611      H3616   1.084       .  S
C3612      C3613   1.422       .  A
C3612      C3725   1.494       .  S
C3613      C3614   1.410       .  A
C3613      C3650   1.485       .  S
C3614      H3615   1.084       .  S
C3617      C3618   1.419       .  A
C3617      C3622   1.400       .  A
C3617      C3779   1.475       .  S
C3618      C3619   1.405       .  A
C3618      C3815   1.487       .  S
C3619      C3620   1.405       .  A
C3619      H3624   1.084       .  S
C3620      C3621   1.417       .  A
C3620      C3704   1.478       .  S
C3621      C3622   1.398       .  A
C3621      C3689   1.480       .  S
C3622      H3623   1.084       .  S
C3625      C3630   1.383       .  A
C3625      C3626   1.403       .  A
C3625      N3631   1.342       .  A
C3626      C3627   1.402       .  A
C3626      H3637   1.083       .  S
C3627      C3636   1.374       .  A
C3627      C3628   1.381       .  A
C3628      C3629   1.408       .  A
C3628      N3634   1.347       .  A
C3629      C3630   1.407       .  A
C3629      H3638   1.082       .  S
C3630      C3633   1.383       .  A
N3631      C3632   1.358       .  A
N3631      H3641   1.045       .  S
C3632      C3633   1.398       .  A
C3633      H3639   1.082       .  S
N3634      C3635   1.360       .  A
N3634      H3642   1.044       .  S
C3635      C3636   1.400       .  A
C3636      H3640   1.082       .  S
C3643      C3648   1.385       .  A
C3643      C3644   1.403       .  A
C3643      N3649   1.341       .  A
C3644      C3645   1.400       .  A
C3644      H3655   1.083       .  S
C3645      C3654   1.375       .  A
C3645      C3646   1.381       .  A
C3646      C3647   1.407       .  A
C3646      N3652   1.347       .  A
C3647      C3648   1.407       .  A
C3647      H3656   1.082       .  S
C3648      C3651   1.385       .  A
N3649      C3650   1.357       .  A
N3649      H3659   1.045       .  S
C3650      C3651   1.398       .  A
C3651      H3657   1.082       .  S
N3652      C3653   1.359       .  A
N3652      H3660   1.044       .  S
C3653      C3654   1.399       .  A
C3654      H3658   1.082       .  S
C3661      C3666   1.383       .  A
C3661      C3662   1.406   1_655  A
C3661      N3667   1.342   1_655  A
C3662      C3663   1.405   1_455  A
C3663      C3672   1.385       .  A
C3663      C3664   1.384       .  A
C3664      C3665   1.407       .  A
C3664      N3670   1.343       .  A
C3665      C3666   1.404       .  A
C3665      H3674   1.082       .  S
C3666      C3669   1.386       .  A
N3667      C3668   1.356   1_455  A
C3668      C3669   1.395       .  A
C3669      H3675   1.082       .  S
N3670      C3671   1.358       .  A
N3670      H3678   1.045       .  S
C3671      C3672   1.398       .  A
C3672      H3676   1.082       .  S
C3679      C3684   1.381       .  A
C3679      C3680   1.398       .  A
C3679      N3685   1.334       .  A
C3680      C3681   1.394       .  A
C3680      H3691   1.083       .  S
C3681      C3690   1.369       .  A
C3681      C3682   1.383       .  A
C3682      N3688   1.348       .  A
C3683      H3692   1.082       .  S
N3685      C3686   1.358       .  A
N3685      H3695   1.042       .  S
C3687      H3693   1.082       .  S
N3688      C3689   1.358       .  A
N3688      H3696   1.044       .  S
C3689      C3690   1.390       .  A
C3690      H3694   1.082       .  S
C3697      C3702   1.384       .  A
C3697      C3698   1.406       .  A
C3697      N3703   1.343       .  A
C3698      C3699   1.404       .  A
C3699      C3708   1.382       .  A
C3699      C3700   1.382       .  A
C3700      C3701   1.404       .  A
C3700      N3706   1.341       .  A
C3701      C3702   1.402       .  A
C3701      H3710   1.083       .  S
C3702      C3705   1.378       .  A
N3703      C3704   1.356       .  A
N3703      H3713   1.045       .  S
C3704      C3705   1.395       .  A
C3705      H3711   1.083       .  S
N3706      C3707   1.359       .  A
N3706      H3714   1.044       .  S
C3707      C3708   1.399       .  A
C3715      C3720   1.384       .  A
C3715      C3716   1.405       .  A
C3716      C3717   1.401       .  A
C3717      C3726   1.382       .  A
C3717      C3718   1.382       .  A
C3718      C3719   1.406       .  A
C3718      N3724   1.341       .  A
C3719      C3720   1.403       .  A
C3719      H3728   1.083       .  S
C3720      C3723   1.385       .  A
N3721      H3731   1.045       .  S
C3722      C3723   1.395       .  A
C3723      H3729   1.082       .  S
N3724      C3725   1.359       .  A
N3724      H3732   1.043       .  S
C3725      C3726   1.397       .  A
C3726      H3730   1.082       .  S
C3733      C3738   1.384       .  A
C3733      N3739   1.341       .  A
C3734      C3735   1.400       .  A
C3734      H3745   1.083       .  S
C3735      C3744   1.373       .  A
C3736      C3737   1.407       .  A
C3737      C3738   1.405       .  A
C3737      H3746   1.082   1_655  S
C3738      C3741   1.383       .  A
N3739      C3740   1.356       .  A
C3740      C3741   1.396       .  A
C3741      H3747   1.082       .  S
N3742      C3743   1.359       .  A
C3743      C3744   1.399       .  A
C3744      H3748   1.081       .  S
C3751      C3756   1.387       .  A
C3751      C3752   1.400       .  A
C3751      N3757   1.343       .  A
C3752      H3763   1.083       .  S
C3753      C3762   1.380       .  A
C3753      C3754   1.383   1_545  A
C3754      C3755   1.404       .  A
C3754      N3760   1.343       .  A
C3755      H3764   1.082       .  S
C3756      C3759   1.379       .  A
N3757      C3758   1.353       .  A
N3757      H3767   1.045       .  S
C3758      C3759   1.399       .  A
C3759      H3765   1.083       .  S
N3760      C3761   1.357       .  A
N3760      H3768   1.044       .  S
C3761      C3762   1.398   1_565  A
C3762      H3766   1.082       .  S
C3769      C3774   1.384       .  A
C3769      N3775   1.347       .  A
C3770      C3771   1.406       .  A
C3770      H3781   1.082       .  S
C3771      C3780   1.378       .  A
C3772      C3773   1.402       .  A
C3772      N3778   1.344       .  A
C3773      C3774   1.402       .  A
C3773      H3782   1.083       .  S
C3774      C3777   1.373       .  A
N3775      C3776   1.356       .  A
C3776      C3777   1.395       .  A
C3777      H3783   1.080       .  S
N3778      H3786   1.045       .  S
C3779      C3780   1.396       .  A
C3780      H3784   1.082       .  S
C3787      C3792   1.382       .  A
C3787      C3788   1.412       .  A
C3787      N3793   1.353       .  A
C3788      C3789   1.414       .  A
C3788      H3799   1.082       .  S
C3789      C3798   1.389       .  A
C3789      C3790   1.383       .  A
C3790      C3791   1.398       .  A
C3790      N3796   1.339       .  A
C3791      C3792   1.397       .  A
C3791      H3800   1.083       .  S
C3792      C3795   1.367       .  A
N3793      C3794   1.361       .  A
N3793      H3803   1.044       .  S
C3794      C3795   1.395       .  A
C3795      H3801   1.081       .  S
N3796      C3797   1.356       .  A
N3796      H3804   1.043       .  S
C3797      C3798   1.404       .  A
C3798      H3802   1.082       .  S
C3805      C3810   1.384       .  A
C3805      N3811   1.345   1_545  A
C3806      C3807   1.411       .  A
C3806      H3817   1.082       .  S
C3807      C3816   1.390       .  A
C3808      C3809   1.397       .  A
C3809      C3810   1.397       .  A
C3809      H3818   1.083       .  S
C3810      C3813   1.368       .  A
N3811      C3812   1.358       .  A
C3812      C3813   1.395   1_565  A
C3813      H3819   1.082       .  S
N3814      C3815   1.352       .  A
C3815      C3816   1.402       .  A
C3816      H3820   1.082       .  S
C3823      C3828   1.384       .  A
C3823      C3824   1.405       .  A
C3823      N3829   1.344       .  A
C3824      C3825   1.404       .  A
C3824      H3835   1.082       .  S
C3825      C3834   1.382       .  A
C3825      C3826   1.383       .  A
C3826      C3827   1.411       .  A
C3826      N3832   1.348       .  A
C3827      C3828   1.410       .  A
C3827      H3836   1.082       .  S
C3828      C3831   1.389       .  A
N3829      C3830   1.355       .  A
N3829      H3839   1.044       .  S
C3830      C3831   1.399       .  A
C3831      H3837   1.082       .  S
N3832      C3833   1.361       .  A
N3832      H3840   1.045       .  S
C3833      C3834   1.396       .  A
C3834      H3838   1.082       .  S
C3841      C3846   1.383       .  A
C3841      C3842   1.401       .  A
C3841      N3847   1.340       .  A
C3842      C3843   1.401       .  A
C3842      H3853   1.083       .  S
C3843      C3852   1.373       .  A
C3844      C3845   1.411       .  A
C3844      N3850   1.350       .  A
C3845      H3854   1.082       .  S
C3846      C3849   1.387       .  A
N3847      C3848   1.356       .  A
N3847      H3857   1.043       .  S
C3848      C3849   1.399       .  A
N3850      C3851   1.362       .  A
N3850      H3858   1.044   1_455  S
C3852      H3856   1.080       .  S
C3859      C3864   1.385       .  A
C3859      C3860   1.403       .  A
C3859      N3865   1.341       .  A
C3860      C3861   1.401       .  A
C3860      H3871   1.083       .  S
C3861      C3862   1.382       .  A
C3862      C3863   1.403       .  A
C3863      C3864   1.401       .  A
C3863      H3872   1.083       .  S
C3864      C3867   1.378       .  A
N3865      C3866   1.355       .  A
N3865      H3875   1.045       .  S
C3866      C3867   1.394       .  A
C3867      H3873   1.083       .  S
N3868      C3869   1.359       .  A
N3868      H3876   1.044       .  S
C3869      C3870   1.397       .  A
C3870      H3874   1.082       .  S
C3877      C3878   1.404       .  A
C3877      N3883   1.342       .  A
C3878      H3889   1.083       .  S
C3879      C3888   1.383       .  A
C3879      C3880   1.384       .  A
C3880      C3881   1.404       .  A
C3880      N3886   1.342       .  A
C3881      C3882   1.402       .  A
C3881      H3890   1.082       .  S
C3882      C3885   1.380       .  A
N3883      C3884   1.356       .  A
N3883      H3893   1.044       .  S
C3885      H3891   1.082       .  S
N3886      C3887   1.357       .  A
N3886      H3894   1.045       .  S
C3887      C3888   1.398       .  A
C3895      C3900   1.383       .  A
C3895      C3896   1.406       .  A
C3895      N3901   1.344       .  A
C3896      C3897   1.404       .  A
C3896      H3907   1.082       .  S
C3897      C3906   1.384       .  A
C3897      C3898   1.382       .  A
C3898      C3899   1.412       .  A
C3898      N3904   1.347       .  A
C3899      C3900   1.409       .  A
C3899      H3908   1.083       .  S
C3900      C3903   1.390       .  A
N3901      C3902   1.356       .  A
N3901      H3911   1.045       .  S
C3902      C3903   1.399       .  A
C3903      H3909   1.082       .  S
N3904      C3905   1.361       .  A
N3904      H3912   1.043       .  S
C3905      C3906   1.397       .  A
C3906      H3910   1.082       .  S
C3913      C3918   1.382       .  A
C3913      C3914   1.411       .  A
C3913      N3919   1.348       .  A
C3914      H3925   1.082       .  S
C3915      C3924   1.393       .  A
C3915      C3916   1.383       .  A
C3916      C3917   1.394       .  A
C3916      N3922   1.334       .  A
C3917      H3926   1.083       .  S
C3918      C3921   1.371       .  A
N3919      C3920   1.361       .  A
N3919      H3929   1.044       .  S
C3920      C3921   1.398       .  A
C3921      H3927   1.081       .  S
N3922      C3923   1.352       .  A
N3922      H3930   1.044       .  S
C3923      C3924   1.403       .  A
C3924      H3928   1.082       .  S
C3931      C3936   1.383       .  A
C3931      C3932   1.407       .  A
C3931      N3937   1.350       .  A
C3932      C3933   1.409       .  A
C3932      H3943   1.082       .  S
C3933      C3942   1.381       .  A
C3933      C3934   1.385       .  A
C3934      C3935   1.403       .  A
C3934      N3940   1.345       .  A
C3935      C3936   1.402       .  A
C3935      H3944   1.083       .  S
C3936      C3939   1.373       .  A
N3937      C3938   1.358       .  A
N3937      H3947   1.044       .  S
C3938      C3939   1.394       .  A
C3939      H3945   1.077       .  S
N3940      C3941   1.355       .  A
N3940      H3948   1.045       .  S
C3941      C3942   1.400       .  A
C3942      H3946   1.082       .  S
C3949      C3954   1.384       .  A
C3949      C3950   1.406       .  A
C3949      N3955   1.350       .  A
C3950      C3951   1.407       .  A
C3951      C3960   1.377       .  A
C3951      C3952   1.383       .  A
C3952      C3953   1.406       .  A
C3952      N3958   1.349       .  A
C3953      C3954   1.407       .  A
C3953      H3962   1.082   1_565  S
C3954      C3957   1.377   1_565  A
N3955      C3956   1.356       .  A
C3956      C3957   1.397   1_565  A
C3957      H3963   1.082       .  S
N3958      C3959   1.358       .  A
N3958      H3966   1.045       .  S
C3959      C3960   1.400       .  A
C3960      H3964   1.081       .  S
C3967      C3972   1.381       .  A
C3967      C3968   1.405       .  A
C3967      N3973   1.345       .  A
C3968      C3969   1.404       .  A
C3968      H3979   1.083       .  S
C3969      C3978   1.379       .  A
C3969      C3970   1.384       .  A
C3970      C3971   1.408       .  A
C3970      N3976   1.348       .  A
C3971      C3972   1.407       .  A
C3972      C3975   1.383   1_565  A
N3973      C3974   1.359       .  A
N3973      H3983   1.044       .  S
C3974      C3975   1.401   1_565  A
N3976      C3977   1.357       .  A
N3976      H3984   1.045       .  S
C3977      C3978   1.399       .  A
C3978      H3982   1.083       .  S
C3985      C3990   1.381       .  A
C3985      C3986   1.396       .  A
C3985      N3991   1.335       .  A
C3986      C3987   1.395       .  A
C3986      H3997   1.083       .  S
C3987      C3996   1.365       .  A
C3987      C3988   1.380       .  A
C3988      C3989   1.412       .  A
C3988      N3994   1.349       .  A
C3989      C3990   1.410       .  A
C3989      H3998   1.082       .  S
C3990      C3993   1.387       .  A
N3991      C3992   1.352       .  A
N3991      H4001   1.040       .  S
C3992      C3993   1.402       .  A
C3993      H3999   1.082       .  S
N3994      C3995   1.364       .  A
N3994      H4002   1.044       .  S
C3995      C3996   1.398       .  A
C3996      H4000   1.080       .  S
C4003      C4008   1.385       .  A
C4003      C4004   1.405       .  A
C4003      N4009   1.342       .  A
C4004      C4005   1.402       .  A
C4004      H4015   1.082       .  S
C4005      C4014   1.378       .  A
C4005      C4006   1.382       .  A
C4006      C4007   1.403       .  A
C4006      N4012   1.342       .  A
C4007      C4008   1.402       .  A
C4007      H4016   1.082       .  S
C4008      C4011   1.380       .  A
N4009      C4010   1.358       .  A
N4009      H4019   1.045       .  S
C4010      C4011   1.395       .  A
C4011      H4017   1.082       .  S
N4012      C4013   1.357       .  A
N4012      H4020   1.044       .  S
C4013      C4014   1.397       .  A
C4014      H4018   1.082       .  S
C4021      C4026   1.384       .  A
C4021      C4022   1.405       .  A
C4021      N4027   1.339       .  A
C4022      C4023   1.401       .  A
C4023      C4032   1.382       .  A
C4023      C4024   1.383       .  A
C4024      C4025   1.406       .  A
C4024      N4030   1.340       .  A
C4025      C4026   1.403       .  A
C4025      H4034   1.083       .  S
C4026      C4029   1.386       .  A
N4027      C4028   1.357       .  A
C4028      C4029   1.395       .  A
C4029      H4035   1.082       .  S
N4030      C4031   1.357       .  A
N4030      H4038   1.043       .  S
C4031      C4032   1.396       .  A
C4032      H4036   1.082       .  S
C4039      C4044   1.384       .  A
C4039      C4040   1.411       .  A
C4039      N4045   1.347       .  A
C4040      C4041   1.408       .  A
C4040      H4051   1.082       .  S
C4041      C4050   1.391       .  A
C4041      C4042   1.381       .  A
C4042      C4043   1.406       .  A
C4042      N4048   1.340       .  A
C4043      C4044   1.403       .  A
C4043      H4052   1.083       .  S
C4044      C4047   1.382       .  A
N4045      C4046   1.358       .  A
N4045      H4055   1.044       .  S
C4046      C4047   1.397       .  A
C4047      H4053   1.083       .  S
N4048      C4049   1.359       .  A
N4048      H4056   1.043       .  S
C4049      C4050   1.400       .  A
C4050      H4054   1.082       .  S
C4057      C4062   1.381       .  A
C4057      C4058   1.400       .  A
C4057      N4063   1.339       .  A
C4058      C4059   1.400       .  A
C4058      H4069   1.083       .  S
C4059      C4068   1.376       .  A
C4059      C4060   1.386       .  A
C4061      H4070   1.082       .  S
C4062      C4065   1.382       .  A
N4063      C4064   1.357       .  A
N4063      H4073   1.043       .  S
C4064      C4065   1.402       .  A
N4066      H4074   1.045       .  S
C4067      C4068   1.395       .  A
C4068      H4072   1.083       .  S
C4075      C4080   1.381       .  A
C4075      C4076   1.407       .  A
C4075      N4081   1.346       .  A
C4076      C4077   1.407       .  A
C4076      H4087   1.082       .  S
C4077      C4086   1.386       .  A
C4077      C4078   1.385       .  A
C4078      C4079   1.404       .  A
C4078      N4084   1.342       .  A
C4079      C4080   1.401       .  A
C4079      H4088   1.083       .  S
C4080      C4083   1.376       .  A
N4081      C4082   1.360       .  A
N4081      H4091   1.044       .  S
C4082      C4083   1.398       .  A
C4083      H4089   1.082       .  S
N4084      C4085   1.357       .  A
N4084      H4092   1.045       .  S
C4085      C4086   1.399       .  A
C4086      H4090   1.082       .  S
C4093      C4098   1.384       .  A
C4093      N4099   1.349       .  A
C4094      H4105   1.083       .  S
C4095      C4096   1.383   1_455  A
C4096      C4097   1.404       .  A
C4096      N4102   1.346       .  A
C4097      C4098   1.405       .  A
C4097      H4106   1.083       .  S
C4098      C4101   1.377       .  A
N4099      C4100   1.356       .  A
C4100      C4101   1.396       .  A
C4101      H4107   1.082       .  S
N4102      C4103   1.357       .  A
N4102      H4110   1.045       .  S
C4104      H4108   1.080       .  S
C4111      C4116   1.384       .  A
C4111      C4112   1.406       .  A
C4111      N4117   1.342       .  A
C4112      C4113   1.402       .  A
C4112      H4123   1.082       .  S
C4113      C4122   1.384       .  A
C4113      C4114   1.380       .  A
C4114      C4115   1.410       .  A
C4114      N4120   1.343       .  A
C4115      C4116   1.407       .  A
C4115      H4124   1.082       .  S
C4116      C4119   1.389       .  A
N4117      C4118   1.357       .  A
N4117      H4127   1.041       .  S
C4118      C4119   1.398       .  A
C4119      H4125   1.082       .  S
N4120      C4121   1.361       .  A
N4120      H4128   1.041       .  S
C4121      C4122   1.400       .  A
C4122      H4126   1.082       .  S
C4129      C4134   1.381       .  A
C4129      C4130   1.414       .  A
C4129      N4135   1.351       .  A
C4130      C4131   1.413       .  A
C4130      H4141   1.082       .  S
C4131      C4140   1.390       .  A
C4131      C4132   1.381       .  A
C4132      C4133   1.397       .  A
C4132      N4138   1.337       .  A
C4133      C4134   1.397       .  A
C4133      H4142   1.083       .  S
C4134      C4137   1.368       .  A
N4135      C4136   1.363       .  A
N4135      H4145   1.044       .  S
C4136      C4137   1.396       .  A
C4137      H4143   1.081       .  S
N4138      C4139   1.354       .  A
N4138      H4146   1.039       .  S
C4139      C4140   1.404       .  A
C4147      C4152   1.385       .  A
C4147      C4148   1.410       .  A
C4147      N4153   1.346       .  A
C4148      C4149   1.407       .  A
C4148      H4159   1.082       .  S
C4149      C4158   1.389       .  A
C4149      C4150   1.381       .  A
C4150      C4151   1.405       .  A
C4150      N4156   1.340       .  A
C4151      C4152   1.403       .  A
C4151      H4160   1.083       .  S
C4152      C4155   1.382       .  A
N4153      C4154   1.358       .  A
N4153      H4163   1.044       .  S
C4154      C4155   1.397       .  A
C4155      H4161   1.083       .  S
N4156      C4157   1.358       .  A
N4156      H4164   1.042       .  S
C4157      C4158   1.399       .  A
C4158      H4162   1.082       .  S
C4165      C4170   1.383       .  A
C4165      C4166   1.405       .  A
C4165      N4171   1.343       .  A
C4166      C4167   1.404       .  A
C4166      H4177   1.083       .  S
C4167      C4176   1.382   1_556  A
C4167      C4168   1.385       .  A
C4168      C4169   1.407       .  A
C4168      N4174   1.344       .  A
C4169      C4170   1.404       .  A
C4169      H4178   1.082       .  S
C4170      C4173   1.383       .  A
N4171      C4172   1.357       .  A
N4171      H4181   1.044       .  S
C4172      C4173   1.399       .  A
C4173      H4179   1.082       .  S
N4174      C4175   1.358   1_556  A
N4174      H4182   1.045       .  S
C4175      C4176   1.396       .  A
C4176      H4180   1.082       .  S
C4183      C4188   1.384       .  A
C4183      C4184   1.406       .  A
C4183      N4189   1.343       .  A
C4184      C4185   1.404       .  A
C4184      H4195   1.082       .  S
C4185      C4194   1.383       .  A
C4185      C4186   1.383       .  A
C4186      C4187   1.407       .  A
C4187      C4188   1.403       .  A
C4188      C4191   1.384       .  A
N4189      C4190   1.356       .  A
N4189      H4199   1.045       .  S
C4190      C4191   1.393       .  A
C4191      H4197   1.082       .  S
N4192      H4200   1.043       .  S
C4193      C4194   1.398       .  A
C4194      H4198   1.082   1_556  S
C4201      C4206   1.380       .  A
C4201      C4202   1.417       .  A
C4201      N4207   1.357       .  A
C4202      C4203   1.418       .  A
C4202      H4213   1.082       .  S
C4203      C4212   1.393       .  A
C4203      C4204   1.383       .  A
C4204      C4205   1.399       .  A
C4204      N4210   1.341       .  A
C4205      C4206   1.398       .  A
C4205      H4214   1.083       .  S
C4206      C4209   1.368       .  A
N4207      C4208   1.364   1_556  A
N4207      H4217   1.044       .  S
C4208      C4209   1.395   1_554  A
C4209      H4215   1.080       .  S
N4210      C4211   1.357       .  A
N4210      H4218   1.043       .  S
C4211      C4212   1.408       .  A
C4212      H4216   1.082       .  S
C4219      C4224   1.385   1_565  A
C4219      C4220   1.403       .  A
C4219      N4225   1.347   1_556  A
C4220      C4221   1.403       .  A
C4220      H4231   1.083       .  S
C4221      C4230   1.374       .  A
C4221      C4222   1.382       .  A
C4222      C4223   1.411   1_565  A
C4222      N4228   1.354       .  A
C4223      C4224   1.413       .  A
C4223      H4232   1.082       .  S
C4224      C4227   1.385       .  A
N4225      C4226   1.355   1_565  A
N4225      H4235   1.045       .  S
C4226      C4227   1.403   1_554  A
C4227      H4233   1.082       .  S
N4228      C4229   1.360       .  A
N4228      H4236   1.044   1_565  S
C4229      C4230   1.394       .  A
C4230      H4234   1.077       .  S
C4237      C4242   1.382       .  A
C4237      C4238   1.403       .  A
C4237      N4243   1.344       .  A
C4238      C4239   1.403       .  A
C4238      H4249   1.082       .  S
C4239      C4248   1.377       .  A
C4239      C4240   1.385       .  A
C4240      C4241   1.407       .  A
C4240      N4246   1.347       .  A
C4241      C4242   1.406       .  A
C4241      H4250   1.082       .  S
C4242      C4245   1.381       .  A
N4243      C4244   1.357       .  A
N4243      H4253   1.044       .  S
C4244      C4245   1.401       .  A
C4245      H4251   1.082       .  S
N4246      C4247   1.357   1_556  A
N4246      H4254   1.045   1_556  S
C4247      C4248   1.397   1_554  A
C4248      H4252   1.083       .  S
C4255      C4260   1.383   1_545  A
C4255      C4256   1.409       .  A
C4255      N4261   1.345       .  A
C4256      C4257   1.407       .  A
C4256      H4267   1.083       .  S
C4257      C4266   1.385       .  A
C4257      C4258   1.384   1_545  A
C4258      C4259   1.395       .  A
C4258      N4264   1.335       .  A
C4259      C4260   1.394       .  A
C4259      H4268   1.083       .  S
C4260      C4263   1.367       .  A
N4261      C4262   1.360   1_545  A
N4261      H4271   1.044       .  S
C4262      C4263   1.394       .  A
C4263      H4269   1.081       .  S
N4264      C4265   1.353   1_566  A
N4264      H4272   1.044       .  S
C4265      C4266   1.399   1_554  A
C4266      H4270   1.082       .  S
