geometry optimzed in LAMMPS
_audit_creation_date              2020-11-30 
_audit_creation_method            'lammps2cif' 
_symmetry_space_group_name_H-M    'P1' 
_symmetry_Int_Tables_number       1 
_symmetry_cell_setting            triclinic 
loop_ 
_symmetry_equiv_pos_as_xyz 
  x,y,z 
_cell_length_a                    42.53634444 
_cell_length_b                    42.58976377693022 
_cell_length_c                    46.09473958715427 
_cell_angle_alpha                 90.07257224418375 
_cell_angle_beta                  90.04229536697106 
_cell_angle_gamma                 120.6155514046511 
loop_ 
_atom_site_label 
_atom_site_type_symbol 
_atom_site_fract_x 
_atom_site_fract_y 
_atom_site_fract_z 
_atom_site_charge 
N1          N  0.42573934  0.92068631  0.28807242    -0.06900
N2          N  0.40899828  0.89953378  0.31078048    -0.59000
N3          N  0.41788588  0.94641975  0.22034923    -0.06600
N4          N  0.39482155  0.94173931  0.19933688    -0.61100
N5          N  0.42527425  0.91995913  0.22038174    -0.06200
N6          N  0.40724936  0.89672933  0.19913976    -0.59000
N7          N  0.41825317  0.94707533  0.28684537    -0.05800
N8          N  0.39698323  0.94486083  0.30840238    -0.61500
C9          C  0.39166723  0.91552616  0.32337960     0.95300
C10         C  0.38821808  0.91057596  0.18623041     0.95100
N11         N  0.49654446  0.05764088  0.22128044    -0.07100
N12         N  0.50276700  0.08195807  0.20094717    -0.59600
N13         N  0.46128389  0.03072797  0.28716627    -0.05200
N14         N  0.44230831  0.03488285  0.30777761    -0.60800
N15         N  0.49596841  0.05622754  0.28866275    -0.07100
N16         N  0.50111059  0.07848020  0.31067292    -0.59900
N17         N  0.46195380  0.03185249  0.22090419    -0.04800
N18         N  0.44407060  0.03816545  0.20055585    -0.60900
Mn19       Mn  0.43924728  0.98892270  0.25357826     1.18400
C20         C  0.46979174  0.06955228  0.18808169     0.97400
C21         C  0.46726227  0.06449273  0.32254573     0.98000
N22         N  0.49977906  0.91911879  0.21952900    -0.07100
N23         N  0.49388276  0.89654641  0.19763464    -0.63400
N24         N  0.53558984  0.94457786  0.28594805    -0.05900
N25         N  0.55459937  0.93975105  0.30620799    -0.64100
N26         N  0.50086692  0.91907377  0.28719584    -0.06600
N27         N  0.49565162  0.89630959  0.30872665    -0.63700
N28         N  0.53428223  0.94518380  0.21971966    -0.05500
N29         N  0.55232194  0.94092318  0.19836615    -0.64400
Mn30       Mn  0.46194646  0.91794508  0.25392944     1.10700
C31         C  0.52703950  0.91049295  0.18452554     0.98600
C32         C  0.52950393  0.90976445  0.32044999     0.98700
N33         N  0.57151935  0.05573454  0.28711601    -0.06600
N34         N  0.59285832  0.08075420  0.30619083    -0.62000
N35         N  0.57835309  0.03026351  0.22042677    -0.06000
N36         N  0.60340737  0.03653897  0.20084011    -0.58700
N37         N  0.57112287  0.05684983  0.22092795    -0.07300
N38         N  0.59149044  0.08195576  0.20157818    -0.61600
N39         N  0.57926596  0.02952515  0.28613308    -0.06300
N40         N  0.60562712  0.03595646  0.30446316    -0.58800
Mn41       Mn  0.53441176  0.05801402  0.25464355     1.20200
Mn42       Mn  0.55720474  0.98724137  0.25301657     1.10100
Cl43       Cl  0.49822684  0.98802410  0.25381547    -0.86700
C44         C  0.61391180  0.06795312  0.31681517     0.95600
C45         C  0.61142794  0.06880383  0.18921977     0.95400
N46         N  0.94929504  0.51577003  0.28797992    -0.06900
N47         N  0.92661272  0.51193180  0.30922145    -0.59000
N48         N  0.97402230  0.54900711  0.22073287    -0.06600
N49         N  0.96895674  0.56829392  0.20096066    -0.61100
N50         N  0.94705800  0.51491059  0.22068800    -0.06200
N51         N  0.92297676  0.51037944  0.20042698    -0.59000
N52         N  0.97584251  0.55002310  0.28653537    -0.05800
N53         N  0.97190465  0.57005633  0.30636803    -0.61500
C54         C  0.94137328  0.54608024  0.32062229     0.95300
C55         C  0.93701944  0.54411485  0.18845613     0.95100
N56         N  0.08407420  0.57975050  0.21832675    -0.07100
N57         N  0.10524983  0.59499613  0.19547200    -0.59600
N58         N  0.05987182  0.58957958  0.28513305    -0.05200
N59         N  0.06408883  0.61213499  0.30623353    -0.60800
N60         N  0.08547794  0.58097710  0.28578576    -0.07100
N61         N  0.10791286  0.59799385  0.30778259    -0.59900
N62         N  0.05858031  0.58851426  0.21926448    -0.04800
N63         N  0.06181386  0.60977427  0.19746360    -0.60900
Mn64       Mn  0.01731765  0.56983494  0.25284515     1.18400
C65         C  0.09076460  0.61347352  0.18266976     0.97400
C66         C  0.09407882  0.61738227  0.32028741     0.98000
N67         N  0.94528598  0.43876323  0.22031522    -0.07100
N68         N  0.92044880  0.41994559  0.20026209    -0.63400
N69         N  0.97305230  0.43009165  0.28579488    -0.05900
N70         N  0.96746709  0.40485136  0.30491936    -0.64100
N71         N  0.94729146  0.43850088  0.28715632    -0.06600
N72         N  0.92325646  0.41843920  0.30735209    -0.63700
N73         N  0.97083942  0.43007936  0.21982898    -0.05500
N74         N  0.96393786  0.40546178  0.19968310    -0.64400
Mn75       Mn  0.94566395  0.47617312  0.25417578     1.10700
C76         C  0.93244166  0.39924739  0.18742997     0.98600
C77         C  0.93643468  0.39772105  0.31829562     0.98700
N78         N  0.08394641  0.50489259  0.28534161    -0.06600
N79         N  0.10644963  0.50972320  0.30700082    -0.62000
N80         N  0.05596258  0.47070562  0.21823809    -0.06000
N81         N  0.05919876  0.45159295  0.19719477    -0.58700
N82         N  0.08323106  0.50465520  0.21788620    -0.07300
N83         N  0.10579762  0.50915810  0.19630926    -0.61600
N84         N  0.05728900  0.47069494  0.28458404    -0.06300
N85         N  0.06091486  0.45168825  0.30543625    -0.58800
Mn86       Mn  0.08604139  0.54358524  0.25191761     1.20200
Mn87       Mn  0.01428454  0.44996832  0.25201321     1.10100
Cl88       Cl  0.01577957  0.50984765  0.25276366    -0.86700
C89         C  0.09152683  0.47621670  0.31947056     0.95600
C90         C  0.09005820  0.47575590  0.18336661     0.95400
N91         N  0.49580255  0.43499959  0.28695208    -0.06900
N92         N  0.49965649  0.41576958  0.30777785    -0.59000
N93         N  0.46227788  0.42715102  0.21996943    -0.06600
N94         N  0.44334117  0.40154951  0.20059116    -0.61100
N95         N  0.49666711  0.43576240  0.22002377    -0.06200
N96         N  0.50168942  0.41610509  0.20042385    -0.59000
N97         N  0.46145422  0.42653107  0.28563385    -0.05800
N98         N  0.44143842  0.40177877  0.30507103    -0.61500
C99         C  0.46540920  0.39542546  0.31897554     0.95300
C100        C  0.46817849  0.39477150  0.18846826     0.95100
N101        N  0.42888178  0.50371360  0.21958249    -0.07100
N102        N  0.41172363  0.50874339  0.19765938    -0.59600
N103        N  0.42054968  0.46895762  0.28638685    -0.05200
N104        N  0.39930973  0.45044406  0.30823375    -0.60800
N105        N  0.42871491  0.50315537  0.28713911    -0.07100
N106        N  0.41276520  0.50851016  0.30971464    -0.59900
N107        N  0.42046708  0.46941866  0.22023758    -0.04800
N108        N  0.39754915  0.45043780  0.19933453    -0.60900
Mn109      Mn  0.44064217  0.44763790  0.25295859     1.18400
C110        C  0.39243150  0.47510546  0.18528345     0.97400
C111        C  0.39495253  0.47535206  0.32280064     0.98000
N112        N  0.57204445  0.51175753  0.21979148    -0.07100
N113        N  0.58877470  0.50670120  0.19761974    -0.63400
N114        N  0.58112349  0.54579918  0.28670260    -0.05900
N115        N  0.60670149  0.56558952  0.30578256    -0.64100
N116        N  0.57335728  0.51170039  0.28695165    -0.06600
N117        N  0.59421531  0.50785118  0.30630486    -0.63700
N118        N  0.58055629  0.54607473  0.22069719    -0.05500
N119        N  0.60308151  0.56498091  0.19957221    -0.64400
Mn120      Mn  0.53529116  0.47279418  0.25357249     1.10700
C121        C  0.60781922  0.54019199  0.18511846     0.98600
C122        C  0.61471385  0.54180518  0.31790810     0.98700
N123        N  0.50412149  0.57820429  0.28814637    -0.06600
N124        N  0.49866946  0.59390683  0.31087127    -0.62000
N125        N  0.53888611  0.58801096  0.22144561    -0.06000
N126        N  0.55798829  0.61153469  0.20096549    -0.58700
N127        N  0.50459950  0.57964509  0.22071991    -0.07300
N128        N  0.49979200  0.59760012  0.19942007    -0.61600
N129        N  0.53841647  0.58654107  0.28752705    -0.06300
N130        N  0.55687822  0.60781449  0.30941174    -0.58800
Mn131      Mn  0.46563788  0.54208747  0.25381830     1.20200
Mn132      Mn  0.56017775  0.56711399  0.25410970     1.10100
Cl133      Cl  0.50045813  0.50737674  0.25361800    -0.86700
C134        C  0.53193659  0.61217309  0.32398838     0.95600
C135        C  0.53348170  0.61748370  0.18732696     0.95400
N136        N  0.84374367  0.60558244  0.43487230    -0.06900
N137        N  0.87331830  0.61732399  0.41836320    -0.59000
N138        N  0.75301161  0.56886324  0.43393297    -0.06600
N139        N  0.72567652  0.55524932  0.41555007    -0.61100
N140        N  0.76988519  0.60465289  0.43466136    -0.06200
N141        N  0.75385606  0.61619926  0.41626851    -0.59000
N142        N  0.82455121  0.56978605  0.43403524    -0.05800
N143        N  0.84011301  0.55640477  0.41764049    -0.61500
C144        C  0.87048299  0.58593328  0.40789084     0.95300
C145        C  0.72604370  0.58468350  0.40483680     0.95100
N146        N  0.71365115  0.50105719  0.02328668    -0.07100
N147        N  0.68041336  0.48657917  0.03379366    -0.59600
N148        N  0.79392167  0.50717646  0.47669866    -0.05200
N149        N  0.80870611  0.49025288  0.46399766    -0.60800
N150        N  0.78550053  0.49873492  0.02338455    -0.07100
N151        N  0.80159727  0.48185272  0.03410464    -0.59900
N152        N  0.72098758  0.50592956  0.47720850    -0.04800
N153        N  0.68844417  0.48936444  0.46518403    -0.60900
Mn154      Mn  0.77284973  0.53756419  0.45531428     1.18400
C155        C  0.65883669  0.47522981  0.00997319     0.97400
C156        C  0.81093113  0.46968900  0.01039318     0.98000
N157        N  0.79697263  0.65978149  0.48897199    -0.07100
N158        N  0.78226434  0.67923304  0.48063176    -0.63400
N159        N  0.86748483  0.65328657  0.01965474    -0.05900
N160        N  0.90155463  0.67064818  0.02925361    -0.64100
N161        N  0.87053796  0.66073695  0.48909101    -0.06600
N162        N  0.90502487  0.68043363  0.48092129    -0.63700
N163        N  0.79523050  0.65579572  0.01961080    -0.05500
N164        N  0.78066486  0.67494153  0.02907940    -0.64400
Mn165      Mn  0.82111008  0.63434363  0.46120509     1.10700
C166        C  0.77107805  0.68603210  0.00477510     0.98600
C167        C  0.92427191  0.68879026  0.50606295     0.98700
N168        N  0.81568404  0.55822916  0.06995532    -0.06600
N169        N  0.82969569  0.54306294  0.08607291    -0.62000
N170        N  0.76355968  0.59622504  0.07011393    -0.06000
N171        N  0.74582080  0.60767702  0.08667176    -0.58700
N172        N  0.74563003  0.56039811  0.06954249    -0.07300
N173        N  0.71581037  0.54676654  0.08522036    -0.61600
N174        N  0.83593307  0.59396845  0.07060858    -0.06300
N175        N  0.86469021  0.60371863  0.08768873    -0.58800
Mn176      Mn  0.76475847  0.52890931  0.04692866     1.20200
Mn177      Mn  0.81641148  0.62638427  0.04579241     1.10100
Cl178      Cl  0.78998412  0.57621456  0.00720744    -0.86700
C179        C  0.86047644  0.57127205  0.09679802     0.95600
C180        C  0.71590507  0.57622410  0.09586798     0.95400
N181        N  0.76781986  0.16484617  0.43333569    -0.06900
N182        N  0.75121199  0.13655897  0.41545839    -0.59000
N183        N  0.82250989  0.25464090  0.43125905    -0.06600
N184        N  0.83620569  0.28194693  0.41298922    -0.61100
N185        N  0.84157547  0.23818808  0.43174892    -0.06200
N186        N  0.86924299  0.25458621  0.41315032    -0.59000
N187        N  0.75083943  0.18338335  0.43308442    -0.05800
N188        N  0.72265079  0.16847046  0.41560602    -0.61500
C189        C  0.72282157  0.13924228  0.40487615     0.95300
C190        C  0.86535469  0.28207890  0.40188640     0.95100
N191        N  0.78746744  0.28227111  0.02406393    -0.07100
N192        N  0.80041591  0.31488090  0.03537092    -0.59600
N193        N  0.72051401  0.21591012  0.47618825    -0.05200
N194        N  0.68745439  0.20100207  0.46511936    -0.60800
N195        N  0.71574434  0.20788250  0.02230164    -0.07100
N196        N  0.68171676  0.19284734  0.03141821    -0.59900
N197        N  0.79438708  0.28829487  0.47480135    -0.04800
N198        N  0.81014744  0.32080714  0.46278312    -0.60900
Mn199      Mn  0.77174840  0.23568245  0.45351553     1.18400
C200        C  0.80994513  0.33723279  0.01227251     0.97400
C201        C  0.66196072  0.18476701  0.00658162     0.98000
N202        N  0.86969441  0.21019770  0.48553036    -0.07100
N203        N  0.90398930  0.22500752  0.47692679    -0.63400
N204        N  0.79766100  0.13527420  0.02268321    -0.05900
N205        N  0.78268566  0.10137036  0.03227595    -0.64100
N206        N  0.79520031  0.13684192  0.48613058    -0.06600
N207        N  0.77929036  0.10228785  0.47780297    -0.63700
N208        N  0.86990978  0.21011071  0.02339819    -0.05500
N209        N  0.90376128  0.22613017  0.03340724    -0.64400
Mn210      Mn  0.81951029  0.18682935  0.45844233     1.10700
C211        C  0.92480694  0.23615307  0.00926514     0.98600
C212        C  0.77358973  0.08071228  0.00790031     0.98700
N213        N  0.74685261  0.18072758  0.07030924    -0.06600
N214        N  0.71899341  0.16679056  0.08814130    -0.62000
N215        N  0.83674022  0.23845189  0.07298367    -0.06000
N216        N  0.86364411  0.25708187  0.09186344    -0.58700
N217        N  0.81654041  0.25357565  0.07104905    -0.07300
N218        N  0.82901767  0.28231454  0.08778296    -0.61600
N219        N  0.76522887  0.16361474  0.07215744    -0.06300
N220        N  0.74973570  0.13715732  0.09166954    -0.58800
Mn221      Mn  0.76623738  0.23110796  0.04718259     1.20200
Mn222      Mn  0.81825367  0.18623003  0.04859533     1.10100
Cl223      Cl  0.79311548  0.20938913  0.00886284    -0.86700
C224        C  0.72070009  0.13950329  0.10107762     0.95600
C225        C  0.85838931  0.28466729  0.10078645     0.95400
N226        N  0.24394405  0.83691576  0.44590797    -0.06900
N227        N  0.26018387  0.86246801  0.42576222    -0.59000
N228        N  0.18965862  0.74710980  0.44813017    -0.06600
N229        N  0.17736241  0.71870920  0.43103763    -0.61100
N230        N  0.17089234  0.76365115  0.44503816    -0.06200
N231        N  0.14537502  0.74661260  0.42482193    -0.59000
N232        N  0.26150737  0.81912484  0.44897411    -0.05800
N233        N  0.28987076  0.83209459  0.43161471    -0.61500
C234        C  0.28909751  0.85923545  0.41747935     0.95300
C235        C  0.14975303  0.71828541  0.41662900     0.95100
N236        N  0.21723608  0.71328044  0.00296849    -0.07100
N237        N  0.20515522  0.67922638  0.01070263    -0.59600
N238        N  0.28873834  0.79034016  0.49852424    -0.05200
N239        N  0.32252676  0.80275888  0.48985469    -0.60800
N240        N  0.29009278  0.78662574  0.00509882    -0.07100
N241        N  0.32375908  0.79900656  0.01423116    -0.59900
N242        N  0.21614606  0.71744288  0.49630747    -0.04800
N243        N  0.20346181  0.68420035  0.48610629    -0.60900
Mn244      Mn  0.23938497  0.76846881  0.47269406     1.18400
C245        C  0.19709314  0.66090390  0.98515328     0.97400
C246        C  0.34384120  0.80914589  0.98954153     0.98000
N247        N  0.13869294  0.79476308  0.49293112    -0.07100
N248        N  0.10529507  0.77962080  0.48218195    -0.63400
N249        N  0.21279258  0.86373615  0.01333603    -0.05900
N250        N  0.23020776  0.89716139  0.02437320    -0.64100
N251        N  0.21254702  0.86762999  0.49415720    -0.06600
N252        N  0.22914684  0.90115509  0.48380347    -0.63700
N253        N  0.13828058  0.78932024  0.01182069    -0.05500
N254        N  0.10449230  0.77207916  0.02211216    -0.64400
Mn255      Mn  0.19068897  0.81638403  0.46873748     1.10700
C256        C  0.08282244  0.76345786  0.99826046     0.98600
C257        C  0.24012845  0.91942228  0.00087298     0.98700
N258        N  0.26034040  0.81076115  0.05647746    -0.06600
N259        N  0.28756198  0.82179383  0.07488640    -0.62000
N260        N  0.17054435  0.75650914  0.05724734    -0.06000
N261        N  0.14444013  0.73917606  0.07671668    -0.58700
N262        N  0.18879839  0.73946162  0.05383118    -0.07300
N263        N  0.17567526  0.71055080  0.07049766    -0.61600
N264        N  0.24340584  0.82917286  0.05982164    -0.06300
N265        N  0.25919757  0.85337230  0.08104216    -0.58800
Mn266      Mn  0.23936645  0.76224296  0.02991213     1.20200
Mn267      Mn  0.19060593  0.81048670  0.03634042     1.10100
Cl268      Cl  0.21421537  0.78933628  0.99431880    -0.86700
C269        C  0.28700192  0.84856849  0.08989474     0.95600
C270        C  0.14797120  0.71040994  0.08468228     0.95400
N271        N  0.50581255  0.78246646  0.00732869    -0.06900
N272        N  0.48522723  0.79497948  0.01720510    -0.59000
N273        N  0.50799789  0.71364594  0.50308893    -0.06600
N274        N  0.48653320  0.67929146  0.49537851    -0.61100
N275        N  0.50936710  0.71200610  0.00622059    -0.06200
N276        N  0.49119152  0.67801888  0.01530255    -0.59000
N277        N  0.50566983  0.78471534  0.50182753    -0.05800
N278        N  0.48237322  0.79464567  0.49336188    -0.61500
C279        C  0.47482876  0.80523375  0.99305086     0.95300
C280        C  0.48184867  0.65811783  0.99064224     0.95100
N281        N  0.59758980  0.75992113  0.44767598    -0.07100
N282        N  0.60636680  0.74270003  0.42819530    -0.59600
N283        N  0.56011420  0.81221872  0.44990742    -0.05200
N284        N  0.54348818  0.82347547  0.43232495    -0.60800
N285        N  0.59575435  0.83140188  0.44631447    -0.07100
N286        N  0.60385394  0.85613289  0.42573251    -0.59900
N287        N  0.56200906  0.74198059  0.45145372    -0.04800
N288        N  0.54611120  0.71261785  0.43517192    -0.60900
Mn289      Mn  0.53341698  0.76290552  0.47621418     1.18400
C290        C  0.57374728  0.71295101  0.42070817     0.97400
C291        C  0.57082753  0.85090615  0.41729739     0.98000
N292        N  0.56406277  0.74167046  0.05668967    -0.07100
N293        N  0.54832383  0.71415890  0.07475009    -0.63400
N294        N  0.59702111  0.83112510  0.06084636    -0.05900
N295        N  0.60434673  0.85620812  0.08115243    -0.64100
N296        N  0.56145506  0.81126353  0.05714404    -0.06600
N297        N  0.54420499  0.82228407  0.07406858    -0.63700
N298        N  0.59969061  0.76008580  0.06032181    -0.05500
N299        N  0.60875519  0.74516574  0.08158352    -0.64400
Mn300      Mn  0.53473609  0.76156929  0.03198848     1.10700
C301        C  0.57618909  0.71616585  0.08999466     0.98600
C302        C  0.57080765  0.85039206  0.08901909     0.98700
N303        N  0.66167398  0.86755340  0.49250038    -0.06600
N304        N  0.67658983  0.90077675  0.48142960    -0.62000
N305        N  0.66408074  0.79355665  0.01254361    -0.06000
N306        N  0.68168426  0.77748502  0.02247167    -0.58700
N307        N  0.66385723  0.79500710  0.49325819    -0.07300
N308        N  0.68027604  0.77827846  0.48241944    -0.61600
N309        N  0.66224377  0.86600503  0.01353722    -0.06300
N310        N  0.67958030  0.89952866  0.02430286    -0.58800
Mn311      Mn  0.63119420  0.81427495  0.46917828     1.20200
Mn312      Mn  0.63230434  0.81353058  0.03758680     1.10100
Cl313      Cl  0.58613883  0.78960545  0.99561773    -0.86700
C314        C  0.68915044  0.92331418  0.50477104     0.95600
C315        C  0.69423090  0.76893244  0.99834250     0.95400
N316        N  0.17372697  0.40938873  0.44227965    -0.06900
N317        N  0.14809088  0.40093388  0.42227459    -0.59000
N318        N  0.26402857  0.44570777  0.44849020    -0.06600
N319        N  0.29319819  0.46252329  0.43210672    -0.61100
N320        N  0.24673508  0.41022248  0.44424413    -0.06200
N321        N  0.26398917  0.40235930  0.42411910    -0.59000
N322        N  0.19245909  0.44495316  0.44594435    -0.05800
N323        N  0.18018685  0.46114507  0.42908846    -0.61500
C324        C  0.15240473  0.43377048  0.41435632     0.95300
C325        C  0.29307841  0.43550327  0.41705937     0.95100
N326        N  0.29384038  0.49731696  0.00570591    -0.07100
N327        N  0.32823764  0.51761729  0.01389596    -0.59600
N328        N  0.21733924  0.49965884  0.49686571    -0.05200
N329        N  0.20639927  0.52191742  0.48772831    -0.60800
N330        N  0.22235774  0.49936294  0.00559659    -0.07100
N331        N  0.20957026  0.52020537  0.01418884    -0.59900
N332        N  0.28971311  0.49964780  0.49945471    -0.04800
N333        N  0.32410886  0.51920049  0.49141126    -0.60900
Mn334      Mn  0.24114448  0.47301105  0.47237921     1.18400
C335        C  0.34715850  0.52638913  0.98861582     0.97400
C336        C  0.19903335  0.52890267  0.98928533     0.98000
N337        N  0.21327971  0.34446694  0.49021885    -0.07100
N338        N  0.23001244  0.32763215  0.48008649    -0.63400
N339        N  0.13934752  0.34467893  0.01520603    -0.05900
N340        N  0.10586168  0.32915048  0.02585945    -0.64100
N341        N  0.13938966  0.34382322  0.48868410    -0.06600
N342        N  0.10605987  0.32754806  0.47756027    -0.63700
N343        N  0.21168318  0.34259192  0.01634110    -0.05500
N344        N  0.22824606  0.32639506  0.02793579    -0.64400
Mn345      Mn  0.19250067  0.37544176  0.46549662     1.10700
C346        C  0.23791204  0.31309121  0.00508600     0.98600
C347        C  0.08358038  0.31491654  0.50088714     0.98700
N348        N  0.19415295  0.44654396  0.05749911    -0.06600
N349        N  0.18325970  0.46389082  0.07459850    -0.62000
N350        N  0.24536793  0.40828834  0.06175307    -0.06000
N351        N  0.26146301  0.39907699  0.08189954    -0.58700
N352        N  0.26409639  0.44378083  0.05775312    -0.07300
N353        N  0.29302205  0.45931988  0.07460139    -0.61600
N354        N  0.17420679  0.41101971  0.06125340    -0.06300
N355        N  0.14922907  0.40369716  0.08156528    -0.58800
Mn356      Mn  0.24404996  0.47239170  0.03193212     1.20200
Mn357      Mn  0.19174329  0.37518935  0.03935700     1.10100
Cl358      Cl  0.21585205  0.41931642  0.99655022    -0.86700
C359        C  0.15527679  0.43717295  0.08949465     0.95600
C360        C  0.29135678  0.43139403  0.08955117     0.95400
N361        N  0.50323672  0.21448128  0.02348319    -0.11400
N362        N  0.52113999  0.19907715  0.03353490    -0.59000
N363        N  0.50154412  0.29019395  0.47584967    -0.06600
N364        N  0.51767406  0.32296675  0.46406707    -0.61100
N365        N  0.50201778  0.28611706  0.02458597    -0.06200
N366        N  0.51930562  0.31901230  0.03583239    -0.59000
N367        N  0.50371161  0.21863819  0.47888668    -0.05800
N368        N  0.52111166  0.20282334  0.46874557    -0.61500
C369        C  0.53248793  0.18976159  0.00938939     0.95300
C370        C  0.53162609  0.34120938  0.01263382     0.95100
N371        N  0.40399102  0.23613776  0.43141979    -0.07100
N372        N  0.39233536  0.25357452  0.41465186    -0.59600
N373        N  0.44213027  0.18401205  0.43405096    -0.05200
N374        N  0.45666095  0.16882138  0.41848389    -0.60800
N375        N  0.40629302  0.16387379  0.43422931    -0.07100
N376        N  0.39581309  0.13413246  0.41821567    -0.59900
N377        N  0.43986690  0.25379366  0.43131339    -0.04800
N378        N  0.45335520  0.28295515  0.41503976    -0.60900
Mn379      Mn  0.47238663  0.23691957  0.45460525     1.18400
C380        C  0.42385744  0.28289685  0.40469239     0.97400
C381        C  0.42785213  0.13770702  0.40863800     0.98000
N382        N  0.44339085  0.25462708  0.07160624    -0.07100
N383        N  0.45815681  0.28262262  0.08932476    -0.63400
N384        N  0.40835484  0.16466093  0.07190723    -0.05900
N385        N  0.39912596  0.13691090  0.08995023    -0.64100
N386        N  0.44410937  0.18398525  0.06982453    -0.06600
N387        N  0.45972030  0.17018869  0.08556825    -0.63700
N388        N  0.40756461  0.23730231  0.07299947    -0.05500
N389        N  0.39727759  0.25352067  0.09227651    -0.64400
Mn390      Mn  0.47365383  0.23507134  0.04765685     1.10700
C391        C  0.42945343  0.28203520  0.10206305     0.98600
C392        C  0.43185057  0.14083069  0.09815915     0.98700
N393        N  0.34880031  0.13605692  0.48708138    -0.06600
N394        N  0.33048372  0.10120352  0.47957753    -0.62000
N395        N  0.34700559  0.20791352  0.02224000    -0.06000
N396        N  0.32926726  0.22430868  0.03125807    -0.58700
N397        N  0.34650518  0.20829611  0.48359351    -0.07300
N398        N  0.32776769  0.22309736  0.47364216    -0.61600
N399        N  0.34712182  0.13429303  0.02219985    -0.06300
N400        N  0.32922014  0.10040453  0.03199244    -0.58800
Mn401      Mn  0.37469451  0.18507877  0.45825699     1.20200
Mn402      Mn  0.37584706  0.18526618  0.04817446     1.10100
Cl403      Cl  0.42534335  0.21084583  0.00879422    -0.86700
C404        C  0.32195926  0.08280709  0.50514133     0.95600
C405        C  0.31907398  0.23422979  0.00647065     0.95400
C406        C  0.29234871  0.26776934  0.03150822    -0.06600
C407        C  0.29848909  0.25467441  0.00530855    -0.00600
C408        C  0.28517899  0.26186207  0.97915484    -0.09200
C409        C  0.26529222  0.28020359  0.98065307    -0.06600
C410        C  0.25896947  0.29315681  0.00678983    -0.00600
C411        C  0.27359802  0.28738419  0.03282442    -0.09100
C412        C  0.27040706  0.30219454  0.06201959     0.61300
H413        H  0.30292827  0.26287772  0.05126541     0.12000
H414        H  0.25466788  0.28498133  0.96087567     0.12000
C415        C  0.29188898  0.25090760  0.94938918     0.61500
F416        F  0.28811230  0.29491313  0.08389930    -0.23700
F417        F  0.23405422  0.28633633  0.06975274    -0.21000
F418        F  0.28461708  0.33528095  0.55944009    -0.20700
F419        F  0.27676588  0.21349178  0.94806319    -0.20700
F420        F  0.32726249  0.27156125  0.43688267    -0.21000
F421        F  0.27487340  0.26585290  0.42135417    -0.23700
C422        C  0.40667557  0.56446428  0.01251851    -0.06600
C423        C  0.38669078  0.55368076  0.98648896    -0.00600
C424        C  0.40408146  0.57208160  0.96032043    -0.09200
C425        C  0.43806187  0.60439805  0.96238257    -0.06600
C426        C  0.45464040  0.61865127  0.98928672    -0.00600
C427        C  0.44093300  0.59646909  0.01432784    -0.09100
C428        C  0.46098871  0.60672981  0.04318462     0.61300
H429        H  0.39430483  0.54893270  0.03209538     0.12000
H430        H  0.45024730  0.62051370  0.94304026     0.12000
C431        C  0.38659073  0.55993643  0.93050116     0.61500
F432        F  0.44884994  0.57653160  0.06082383    -0.23700
F433        F  0.43463969  0.65675328  0.57708685    -0.21000
F434        F  0.49803296  0.62112183  0.03886164    -0.20700
F435        F  0.37374090  0.55327596  0.45078490    -0.20700
F436        F  0.37552633  0.52362642  0.92607990    -0.21000
F437        F  0.41070271  0.57970434  0.90844228    -0.23700
C438        C  0.25800784  0.97736317  0.02739962    -0.06600
C439        C  0.26121043  0.96042505  0.00227551    -0.00600
C440        C  0.25906021  0.98411627  0.48202330    -0.09200
C441        C  0.27984459  0.02252836  0.48298062    -0.06600
C442        C  0.29861437  0.03827582  0.00744916    -0.00600
C443        C  0.27606609  0.01576958  0.03047757    -0.09100
C444        C  0.26998128  0.03171110  0.05796301     0.61300
H445        H  0.24060462  0.96005176  0.04466485     0.12000
H446        H  0.28025027  0.03795508  0.46420749     0.12000
C447        C  0.23718430  0.96588978  0.45471354     0.61500
F448        F  0.31890453  0.01532030  0.58004875    -0.23700
F449        F  0.30774119  0.06046314  0.57226286    -0.21000
F450        F  0.30230795  0.05052977  0.07334618    -0.20700
F451        F  0.20113517  0.94163252  0.46182460    -0.20700
F452        F  0.30200365  0.94222432  0.96026132    -0.21000
F453        F  0.31934213  0.99369872  0.93575743    -0.23700
C454        C  0.17669816  0.60171294  0.00840393    -0.06600
C455        C  0.18815082  0.62253134  0.98284352    -0.00600
C456        C  0.17465131  0.60245821  0.48581035    -0.09200
C457        C  0.17780466  0.57125907  0.48763123    -0.06600
C458        C  0.18849724  0.55687595  0.98698706    -0.00600
C459        C  0.17663969  0.56889820  0.01099139    -0.09100
C460        C  0.16576805  0.54875302  0.03975526     0.61300
H461        H  0.17006302  0.61251911  0.02718498     0.12000
H462        H  0.17439518  0.55559880  0.46814201     0.12000
C463        C  0.16453816  0.61180665  0.45680702     0.61500
F464        F  0.14538450  0.55902600  0.05630547    -0.23700
F465        F  0.19672632  0.55659084  0.05535915    -0.21000
F466        F  0.14461481  0.51150923  0.03519067    -0.20700
F467        F  0.19588675  0.63350979  0.44096658    -0.20700
F468        F  0.14525876  0.62966203  0.46045717    -0.21000
F469        F  0.14237153  0.58040752  0.44110570    -0.23700
C470        C  0.43438704  0.82471179  0.49479305    -0.06600
C471        C  0.44749526  0.81696973  0.99241772    -0.00600
C472        C  0.43316321  0.82401362  0.01778261    -0.09200
C473        C  0.40040400  0.82416035  0.01540017    -0.06600
C474        C  0.38264814  0.81909134  0.98864587    -0.00600
C475        C  0.40347835  0.82835958  0.49275211    -0.09100
C476        C  0.39727604  0.84419521  0.46530482     0.61300
H477        H  0.45181774  0.83061326  0.47599933     0.12000
H478        H  0.38737295  0.82614453  0.03494093     0.12000
C479        C  0.45079819  0.82996394  0.04751324     0.61500
F480        F  0.42854597  0.86142664  0.44860408    -0.23700
F481        F  0.38782337  0.86989479  0.47243222    -0.21000
F482        F  0.36999062  0.81692289  0.44862500    -0.20700
F483        F  0.48828276  0.85244191  0.04538100    -0.20700
F484        F  0.44249892  0.79681582  0.05938894    -0.21000
F485        F  0.43837402  0.84667588  0.06631623    -0.23700
C486        C  0.73006730  0.02262416  0.98323891    -0.06600
C487        C  0.75325646  0.03981803  0.00706751    -0.00600
C488        C  0.75413183  0.02244158  0.52652275    -0.09200
C489        C  0.73427695  0.98388706  0.52558918    -0.06600
C490        C  0.70854010  0.96423430  0.50372207    -0.00600
C491        C  0.70959836  0.98433687  0.98013971    -0.09100
C492        C  0.68419665  0.96796172  0.95420102     0.61300
H493        H  0.72782043  0.03962717  0.96691262     0.12000
H494        H  0.73903392  0.96862737  0.54200063     0.12000
C495        C  0.78220417  0.04165763  0.55041322     0.61500
F496        F  0.66548004  0.98925520  0.44463171    -0.23700
F497        F  0.63913643  0.94024136  0.47322913    -0.21000
F498        F  0.69709479  0.95129158  0.93591554    -0.20700
F499        F  0.77153246  0.06075370  0.56814823    -0.20700
F500        F  0.81727393  0.05866036  0.04419772    -0.21000
F501        F  0.78456978  0.00794735  0.07033232    -0.23700
C502        C  0.98288605  0.28076888  0.98543414    -0.06600
C503        C  0.96565580  0.25701592  0.00886433    -0.00600
C504        C  0.98766469  0.25339747  0.03029475    -0.09200
C505        C  0.02603228  0.27359113  0.02721446    -0.06600
C506        C  0.04316569  0.29677443  0.00348113    -0.00600
C507        C  0.02119668  0.30096120  0.98240983    -0.09100
C508        C  0.03938172  0.31648104  0.44861186     0.61300
H509        H  0.96591970  0.28347286  0.96928859     0.12000
H510        H  0.04312856  0.27096247  0.04326785     0.12000
C511        C  0.97110610  0.22753628  0.05581661     0.61500
F512        F  0.01195183  0.33103911  0.94190394    -0.23700
F513        F  0.05300500  0.31323885  0.93794037    -0.21000
F514        F  0.06343592  0.35268074  0.45542538    -0.20700
F515        F  0.94665412  0.19276712  0.04585795    -0.20700
F516        F  0.94928259  0.24913134  0.56833035    -0.21000
F517        F  0.99285136  0.23517044  0.57387833    -0.23700
C518        C  0.57590035  0.18327163  0.46425486    -0.06600
C519        C  0.55829713  0.17615466  0.00903287    -0.00600
C520        C  0.57200468  0.16859747  0.03449756    -0.09200
C521        C  0.60483973  0.16845654  0.03245087    -0.06600
C522        C  0.62282655  0.17365231  0.00578202    -0.00600
C523        C  0.60843309  0.18278215  0.46151127    -0.09100
C524        C  0.62328667  0.18402558  0.43127229     0.61300
H525        H  0.56323675  0.18646050  0.44498873     0.12000
H526        H  0.61775173  0.16657182  0.05211515     0.12000
C527        C  0.55326068  0.16167209  0.06379161     0.61500
F528        F  0.59793625  0.17820746  0.40992868    -0.23700
F529        F  0.63198804  0.15698063  0.42847382    -0.21000
F530        F  0.65387131  0.21784051  0.42630062    -0.20700
F531        F  0.51595125  0.13868614  0.06055578    -0.20700
F532        F  0.56035171  0.19425496  0.07612680    -0.21000
F533        F  0.56550208  0.14499126  0.08276061    -0.23700
C534        C  0.02436336  0.72185316  0.02417122    -0.06600
C535        C  0.04155890  0.74237120  0.99910659    -0.00600
C536        C  0.01899464  0.74240559  0.97623970    -0.09200
C537        C  0.98057593  0.72163073  0.97927211    -0.06600
C538        C  0.96345117  0.70126236  0.00431527    -0.00600
C539        C  0.98588641  0.70128928  0.02728459    -0.09100
C540        C  0.96972700  0.67921168  0.05482320     0.61300
H541        H  0.04150233  0.72187965  0.04153616     0.12000
H542        H  0.96336742  0.72145473  0.96190643     0.12000
C543        C  0.03485378  0.76474411  0.94882960     0.61500
F544        F  0.99630091  0.68013371  0.07277178    -0.23700
F545        F  0.94553301  0.64308809  0.04784657    -0.21000
F546        F  0.94799956  0.70507845  0.57247470    -0.20700
F547        F  0.05269041  0.75091581  0.93302138    -0.20700
F548        F  0.06461065  0.80870048  0.46067273    -0.21000
F549        F  0.01437477  0.77279410  0.43484180    -0.23700
C550        C  0.72976817  0.74602721  0.02532532    -0.06600
C551        C  0.71503229  0.74870620  0.99871293    -0.00600
C552        C  0.71977607  0.73128197  0.97400612    -0.09200
C553        C  0.73826800  0.71163071  0.97723652    -0.06600
C554        C  0.75242997  0.70838304  0.00397376    -0.00600
C555        C  0.74838244  0.72649822  0.02851319    -0.09100
C556        C  0.77439577  0.73358798  0.55826620     0.61300
H557        H  0.73394991  0.76525136  0.54798090     0.12000
H558        H  0.74151732  0.69814285  0.95855815     0.12000
C559        C  0.70509171  0.73257166  0.94421294     0.61500
F560        F  0.75877640  0.74706690  0.07824559    -0.23700
F561        F  0.80029809  0.73800074  0.05638022    -0.21000
F562        F  0.75904917  0.70024522  0.57215618    -0.20700
F563        F  0.72221231  0.76822295  0.93447292    -0.20700
F564        F  0.65550317  0.71130759  0.45977389    -0.21000
F565        F  0.71122570  0.71236901  0.92384302    -0.23700
C566        C  0.82056874  0.42640911  0.03861708    -0.06600
C567        C  0.82420432  0.44369296  0.01199705    -0.00600
C568        C  0.83463551  0.43149482  0.98731016    -0.09200
C569        C  0.83111361  0.39687812  0.98833364    -0.06600
C570        C  0.82134992  0.37642332  0.01414997    -0.00600
C571        C  0.82005687  0.39335592  0.04046547    -0.09100
C572        C  0.81589524  0.37650019  0.07034731     0.61300
H573        H  0.81495251  0.43725627  0.05783632     0.12000
H574        H  0.83523781  0.38547718  0.96865492     0.12000
C575        C  0.84927606  0.45413922  0.95998456     0.61500
F576        F  0.82152378  0.40102323  0.09233525    -0.23700
F577        F  0.88412070  0.38486574  0.52073153    -0.21000
F578        F  0.78098461  0.34684145  0.07357548    -0.20700
F579        F  0.82312607  0.46337757  0.41781911    -0.20700
F580        F  0.82118484  0.44435275  0.94036129    -0.21000
F581        F  0.87551544  0.44845354  0.94743014    -0.23700
C582        C  0.60491455  0.43464263  0.03854333    -0.06600
C583        C  0.61893761  0.45071853  0.01155211    -0.00600
C584        C  0.59689971  0.43615039  0.98659169    -0.09200
C585        C  0.56670361  0.40070615  0.98817200    -0.06600
C586        C  0.55699079  0.38105165  0.01434319    -0.00600
C587        C  0.57430722  0.39954343  0.04060941    -0.09100
C588        C  0.56348399  0.38217063  0.07055364     0.61300
H589        H  0.62065534  0.44774614  0.05786852     0.12000
H590        H  0.55152018  0.38790695  0.96850129     0.12000
C591        C  0.60407701  0.45659806  0.95820314     0.61500
F592        F  0.58197049  0.40713293  0.09251931    -0.23700
F593        F  0.55490308  0.38538713  0.55803007    -0.21000
F594        F  0.52655617  0.36818425  0.07506456    -0.20700
F595        F  0.65586432  0.43974674  0.42516229    -0.20700
F596        F  0.63007516  0.49319705  0.96091469    -0.21000
F597        F  0.57218201  0.45457922  0.94892339    -0.23700
C598        C  0.42577290  0.35244742  0.15091456    -0.06600
C599        C  0.45817436  0.36483701  0.16714038    -0.00600
C600        C  0.47832268  0.34682896  0.16387161    -0.09200
C601        C  0.46642750  0.31879860  0.14324419    -0.06600
C602        C  0.43506918  0.30754089  0.12614215    -0.00600
C603        C  0.41360412  0.32375322  0.13057881    -0.09100
C604        C  0.37850226  0.31127129  0.11377168     0.61300
H605        H  0.41002152  0.36566211  0.15413059     0.12000
H606        H  0.48214599  0.30554980  0.13997921     0.12000
C607        C  0.51183195  0.35620387  0.18213426     0.61500
F608        F  0.36284162  0.33203936  0.12030711    -0.23700
F609        F  0.35359889  0.27537598  0.12067625    -0.21000
F610        F  0.38540149  0.31403813  0.08428539    -0.20700
F611        F  0.50339200  0.35433230  0.21130451    -0.20700
F612        F  0.53997072  0.39087183  0.17536253    -0.21000
F613        F  0.52431396  0.33230569  0.17730578    -0.23700
C614        C  0.42035416  0.33467200  0.33867645    -0.06600
C615        C  0.45387249  0.36772466  0.34222264    -0.00600
C616        C  0.47362818  0.37433120  0.36829428    -0.09200
C617        C  0.46034696  0.34668656  0.38933871    -0.06600
C618        C  0.42853752  0.31241172  0.38487535    -0.00600
C619        C  0.40752061  0.30651653  0.35954611    -0.09100
C620        C  0.37289846  0.27032017  0.35379058     0.61300
H621        H  0.40521070  0.33060370  0.31915424     0.12000
H622        H  0.47575985  0.35103516  0.40888097     0.12000
C623        C  0.50855091  0.41032566  0.37407701     0.61500
F624        F  0.35642062  0.27057407  0.32795027    -0.23700
F625        F  0.34812862  0.26286771  0.37590726    -0.21000
F626        F  0.38104343  0.24278506  0.35228111    -0.20700
F627        F  0.50257552  0.43900446  0.36965771    -0.20700
F628        F  0.53574271  0.41381461  0.35560943    -0.21000
F629        F  0.52076944  0.41266540  0.40228559    -0.23700
C630        C  0.65289175  0.53953941  0.11398514    -0.06600
C631        C  0.68706243  0.57198139  0.11645705    -0.00600
C632        C  0.69347821  0.59549729  0.14031671    -0.09200
C633        C  0.66644030  0.58411889  0.16194976    -0.06600
C634        C  0.63360862  0.55027466  0.16051282    -0.00600
C635        C  0.62590406  0.52828278  0.13551975    -0.09100
C636        C  0.58927227  0.49351625  0.13122863     0.61300
H637        H  0.64783323  0.52218224  0.09526219     0.12000
H638        H  0.67129373  0.60121074  0.18080394     0.12000
C639        C  0.72883291  0.63172355  0.14355874     0.61500
F640        F  0.58574681  0.47933839  0.10357482    -0.23700
F641        F  0.56127032  0.50065652  0.13526548    -0.21000
F642        F  0.58561194  0.46733978  0.15082657    -0.20700
F643        F  0.73295505  0.65376079  0.12017910    -0.20700
F644        F  0.75809980  0.62612657  0.14483069    -0.21000
F645        F  0.72926578  0.65004846  0.16852468    -0.23700
C646        C  0.64657811  0.57682699  0.36190295    -0.06600
C647        C  0.64461284  0.55358951  0.33931351    -0.00600
C648        C  0.67314948  0.54598259  0.33596248    -0.09200
C649        C  0.70097865  0.55929989  0.35697559    -0.06600
C650        C  0.70176791  0.58071950  0.38048932    -0.00600
C651        C  0.67482572  0.59055065  0.38270276    -0.09100
C652        C  0.67543601  0.61436420  0.40739694     0.61300
H653        H  0.62530478  0.58360644  0.36343884     0.12000
H654        H  0.72201196  0.55214063  0.35570133     0.12000
C655        C  0.67501363  0.52503060  0.30997068     0.61500
F656        F  0.64706223  0.62131483  0.40534646    -0.23700
F657        F  0.70799501  0.64736655  0.40683826    -0.21000
F658        F  0.67240558  0.59729680  0.43362097    -0.20700
F659        F  0.67321295  0.54139900  0.28460802    -0.20700
F660        F  0.64631211  0.48938172  0.31077592    -0.21000
F661        F  0.70723392  0.52437933  0.30950400    -0.23700
C662        C  0.53956008  0.68846539  0.13368683    -0.06600
C663        C  0.56909884  0.69383877  0.11635844    -0.00600
C664        C  0.58688788  0.67429928  0.12244408    -0.09200
C665        C  0.57417768  0.64963590  0.14583542    -0.06600
C666        C  0.54384655  0.64339653  0.16272508    -0.00600
C667        C  0.52630648  0.66340222  0.15668767    -0.09100
C668        C  0.49391307  0.65872461  0.17418516     0.61300
H669        H  0.52621483  0.70365896  0.12851373     0.12000
H670        H  0.58752247  0.63437815  0.15071761     0.12000
C671        C  0.61791494  0.67829396  0.10357048     0.61500
F672        F  0.48356300  0.68348483  0.16612300    -0.23700
F673        F  0.50273322  0.66401052  0.20337248    -0.21000
F674        F  0.46427964  0.62406510  0.16980488    -0.20700
F675        F  0.64703892  0.71369981  0.10522258    -0.20700
F676        F  0.60628807  0.67019768  0.07506332    -0.21000
F677        F  0.63001326  0.65509248  0.11216598    -0.23700
C678        C  0.57790383  0.66642472  0.35087869    -0.06600
C679        C  0.54195008  0.63646572  0.34968755    -0.00600
C680        C  0.51820422  0.62985659  0.37328941    -0.09200
C681        C  0.53092845  0.65468650  0.39657611    -0.06600
C682        C  0.56627327  0.68596138  0.39711073    -0.00600
C683        C  0.59066223  0.69139293  0.37412314    -0.09100
C684        C  0.62962550  0.72334702  0.37350118     0.61300
H685        H  0.59597753  0.67066816  0.33287385     0.12000
H686        H  0.51267341  0.65003267  0.41452570     0.12000
C687        C  0.48000352  0.59650686  0.37443063     0.61500
F688        F  0.64862839  0.72232031  0.34948778    -0.23700
F689        F  0.64803029  0.72246065  0.39788116    -0.21000
F690        F  0.62963125  0.75580059  0.37266875    -0.20700
F691        F  0.48178786  0.56519666  0.37079867    -0.20700
F692        F  0.45850019  0.59849067  0.35286276    -0.21000
F693        F  0.46308000  0.59381426  0.40068309    -0.23700
C694        C  0.33227276  0.43354228  0.16356811    -0.06600
C695        C  0.36710993  0.46469287  0.16046312    -0.00600
C696        C  0.37814327  0.48183268  0.13319855    -0.09200
C697        C  0.35295990  0.46829890  0.11016971    -0.06600
C698        C  0.31738647  0.43816610  0.11349914    -0.00600
C699        C  0.30693390  0.41990656  0.14055426    -0.09100
C700        C  0.26916464  0.38703897  0.14555772     0.61300
H701        H  0.32493163  0.42012940  0.18449178     0.12000
H702        H  0.36069381  0.48186169  0.08931277     0.12000
C703        C  0.41648381  0.51370630  0.12828737     0.61500
F704        F  0.26467901  0.37445340  0.17381006    -0.23700
F705        F  0.26380233  0.35891320  0.12731758    -0.21000
F706        F  0.24283870  0.39621586  0.14019448    -0.20700
F707        F  0.44191734  0.50453954  0.13699599    -0.20700
F708        F  0.42152000  0.54360998  0.14398265    -0.21000
F709        F  0.42271641  0.52336451  0.09934900    -0.23700
C710        C  0.34484552  0.43468791  0.39361017    -0.06600
C711        C  0.31732270  0.44342490  0.39194833    -0.00600
C712        C  0.31636978  0.46410407  0.36817607    -0.09200
C713        C  0.34293470  0.47482299  0.34640592    -0.06600
C714        C  0.37023393  0.46581087  0.34785195    -0.00600
C715        C  0.37181397  0.44595000  0.37196409    -0.09100
C716        C  0.40274632  0.43820087  0.37550519     0.61300
H717        H  0.34560690  0.41984804  0.41240105     0.12000
H718        H  0.34239139  0.49008166  0.32783121     0.12000
C719        C  0.28730198  0.47470765  0.36562806     0.61500
F720        F  0.40264473  0.42450970  0.40275313    -0.23700
F721        F  0.43597835  0.47008600  0.37189818    -0.21000
F722        F  0.39941366  0.41281306  0.35517856    -0.20700
F723        F  0.29284059  0.50029607  0.38656858    -0.20700
F724        F  0.25298518  0.44421202  0.36913806    -0.21000
F725        F  0.28816129  0.48977729  0.33883554    -0.23700
C726        C  0.90290595  0.52757577  0.14243779    -0.06600
C727        C  0.91988129  0.55342520  0.16445180    -0.00600
C728        C  0.91998420  0.58688152  0.16294389    -0.09200
C729        C  0.90173562  0.59243727  0.13970399    -0.06600
C730        C  0.88364553  0.56593550  0.11815589    -0.00600
C731        C  0.88531829  0.53330819  0.11900018    -0.09100
C732        C  0.86855213  0.50400208  0.09565853     0.61300
H733        H  0.90341687  0.50245405  0.14381032     0.12000
H734        H  0.90051833  0.61718061  0.13867047     0.12000
C735        C  0.93805523  0.61621522  0.18610413     0.61500
F736        F  0.88165141  0.48019289  0.09709561    -0.23700
F737        F  0.87693688  0.51973665  0.06840111    -0.21000
F738        F  0.83108590  0.48381373  0.09923627    -0.20700
F739        F  0.97556062  0.63188559  0.18457484    -0.20700
F740        F  0.92598513  0.60119970  0.21331239    -0.21000
F741        F  0.93006477  0.64370655  0.18261289    -0.23700
C742        C  0.92417953  0.58954001  0.34048013    -0.06600
C743        C  0.92542279  0.55735124  0.34423991    -0.00600
C744        C  0.91349228  0.53820979  0.37072746    -0.09200
C745        C  0.89878091  0.55084843  0.39193234    -0.06600
C746        C  0.89511673  0.58157820  0.38748286    -0.00600
C747        C  0.90864674  0.60175842  0.36151931    -0.09100
C748        C  0.90502176  0.63475225  0.35541664     0.61300
H749        H  0.93428965  0.60436364  0.32031741     0.12000
H750        H  0.88840759  0.53565341  0.41192337     0.12000
C751        C  0.91639882  0.50471070  0.37669071     0.61500
F752        F  0.91926917  0.64996898  0.32861373    -0.23700
F753        F  0.92365967  0.66111890  0.37636963    -0.21000
F754        F  0.86854455  0.62469317  0.35570685    -0.20700
F755        F  0.95166424  0.51245440  0.37140515    -0.20700
F756        F  0.89239889  0.47631880  0.35896095    -0.21000
F757        F  0.90800179  0.49330044  0.40520357    -0.23700
C758        C  0.92993077  0.35151595  0.15483070    -0.06600
C759        C  0.91281521  0.37052795  0.16484570    -0.00600
C760        C  0.87785126  0.36064996  0.15375003    -0.09200
C761        C  0.86144367  0.33182422  0.13373365    -0.06600
C762        C  0.87862280  0.31301417  0.12349066    -0.00600
C763        C  0.91370456  0.32316739  0.13417266    -0.09100
C764        C  0.93423767  0.30474178  0.12384059     0.61300
H765        H  0.95642824  0.35888031  0.16346056     0.12000
H766        H  0.83445899  0.32381785  0.12580180     0.12000
C767        C  0.85746485  0.38000615  0.16246927     0.61500
F768        F  0.96896653  0.32065870  0.13567358    -0.23700
F769        F  0.93784310  0.30738722  0.09398393    -0.21000
F770        F  0.91543206  0.26842040  0.13189091    -0.20700
F771        F  0.87829863  0.41669815  0.15575122    -0.20700
F772        F  0.85000508  0.37570631  0.19186847    -0.21000
F773        F  0.82442133  0.36624674  0.14807491    -0.23700
C774        C  0.93914002  0.36251874  0.36004385    -0.06600
C775        C  0.91765338  0.36716389  0.33912247    -0.00600
C776        C  0.88020803  0.34036317  0.33644286    -0.09200
C777        C  0.86515102  0.31107225  0.35607364    -0.06600
C778        C  0.88610348  0.30749438  0.37803208    -0.00600
C779        C  0.92383614  0.33315995  0.37982379    -0.09100
C780        C  0.94728384  0.33007829  0.40309427     0.61300
H781        H  0.96804739  0.38259580  0.36113206     0.12000
H782        H  0.83617697  0.29116973  0.35513242     0.12000
C783        C  0.85629588  0.34211870  0.31273210     0.61500
F784        F  0.98334657  0.35800043  0.40130476    -0.23700
F785        F  0.94622767  0.29725759  0.39999502    -0.21000
F786        F  0.93421990  0.33149476  0.43024670    -0.20700
F787        F  0.87217874  0.34516163  0.28589862    -0.20700
F788        F  0.85206561  0.37184900  0.31729553    -0.21000
F789        F  0.82186705  0.31116637  0.31221378    -0.23700
C790        C  0.10089793  0.43254508  0.11390382    -0.06600
C791        C  0.13840053  0.44515220  0.11449361    -0.00600
C792        C  0.15996494  0.46777114  0.13780260    -0.09200
C793        C  0.14330548  0.47791372  0.15934258    -0.06600
C794        C  0.10582199  0.46548829  0.15879425    -0.00600
C795        C  0.08407065  0.44221999  0.13575321    -0.09100
C796        C  0.04333891  0.42797315  0.13390416     0.61300
H797        H  0.08494967  0.41538799  0.09593440     0.12000
H798        H  0.15945904  0.49528453  0.17714027     0.12000
C799        C  0.20038209  0.48058222  0.14036579     0.61500
F800        F  0.02889859  0.41169551  0.10737483    -0.23700
F801        F  0.03664616  0.45631794  0.13750048    -0.21000
F802        F  0.02545416  0.40217058  0.15526250    -0.20700
F803        F  0.21990630  0.50701006  0.11976393    -0.20700
F804        F  0.20580465  0.45147224  0.13632195    -0.21000
F805        F  0.21415508  0.49542274  0.16740951    -0.23700
C806        C  0.09867303  0.42959296  0.34594959    -0.06600
C807        C  0.10666307  0.46598839  0.34445070    -0.00600
C808        C  0.12665996  0.49026337  0.36726079    -0.09200
C809        C  0.13938185  0.47759273  0.38995225    -0.06600
C810        C  0.13302976  0.44166164  0.39088734    -0.00600
C811        C  0.11130633  0.41681640  0.36878692    -0.09100
C812        C  0.10138878  0.37720095  0.36893487     0.61300
H813        H  0.08267943  0.41109645  0.32864875     0.12000
H814        H  0.15507949  0.49632527  0.40720033     0.12000
C815        C  0.13398061  0.52910453  0.36827126     0.61500
F816        F  0.07907634  0.35780933  0.34580470    -0.23700
F817        F  0.08274505  0.36075171  0.39412923    -0.21000
F818        F  0.13268217  0.37504086  0.36721989    -0.20700
F819        F  0.10141977  0.52884983  0.36586052    -0.20700
F820        F  0.15707320  0.54924877  0.34590007    -0.21000
F821        F  0.15047457  0.54647995  0.39398963    -0.23700
C822        C  0.10369542  0.66936633  0.15731145    -0.06600
C823        C  0.10526857  0.63721180  0.15700337    -0.00600
C824        C  0.11766610  0.62771763  0.13194870    -0.09200
C825        C  0.12938731  0.65177394  0.10828800    -0.06600
C826        C  0.12914364  0.68474374  0.10890151    -0.00600
C827        C  0.11550048  0.69354371  0.13373141    -0.09100
C828        C  0.11413705  0.72841911  0.13600341     0.61300
H829        H  0.09353087  0.67573596  0.17662806     0.12000
H830        H  0.13952771  0.64517234  0.08907498     0.12000
C831        C  0.11755164  0.59206190  0.12973322     0.61500
F832        F  0.10032151  0.73132154  0.16241498    -0.23700
F833        F  0.09176534  0.72892998  0.11445162    -0.21000
F834        F  0.14893685  0.75841278  0.13326359    -0.20700
F835        F  0.08286660  0.56306990  0.13534256    -0.20700
F836        F  0.14197886  0.59186973  0.14942057    -0.21000
F837        F  0.12759412  0.58700864  0.10237966    -0.23700
C838        C  0.15857285  0.68869162  0.37448412    -0.06600
C839        C  0.13410427  0.69455751  0.39086904    -0.00600
C840        C  0.09652416  0.67472191  0.38422508    -0.09200
C841        C  0.08469329  0.64891727  0.36156498    -0.06600
C842        C  0.10923765  0.64269173  0.34537488    -0.00600
C843        C  0.14699378  0.66324020  0.35179336    -0.09100
C844        C  0.17528903  0.65942952  0.33452948     0.61300
H845        H  0.18737465  0.70438652  0.37978423     0.12000
H846        H  0.05588951  0.63336197  0.35625810     0.12000
C847        C  0.06919376  0.68039842  0.40108966     0.61500
F848        F  0.21058710  0.68408970  0.34343918    -0.23700
F849        F  0.17257857  0.66574760  0.30546066    -0.21000
F850        F  0.16978846  0.62476126  0.33809365    -0.20700
F851        F  0.07665493  0.71569962  0.39702575    -0.20700
F852        F  0.07147898  0.67456751  0.43033280    -0.21000
F853        F  0.03364888  0.65678920  0.39209882    -0.23700
C854        C  0.31509568  0.84208210  0.13445386    -0.06600
C855        C  0.31081906  0.86545731  0.11550639    -0.00600
C856        C  0.33227034  0.90352076  0.11952672    -0.09200
C857        C  0.35731892  0.91704758  0.14281806    -0.06600
C858        C  0.36198404  0.89366903  0.16169630    -0.00600
C859        C  0.34019812  0.85536325  0.15759230    -0.09100
C860        C  0.34254982  0.82834404  0.17768391     0.61300
H861        H  0.29863720  0.81297196  0.13071787     0.12000
H862        H  0.37389003  0.94620919  0.14620986     0.12000
C863        C  0.32964417  0.92952979  0.09859400     0.61500
F864        F  0.31614399  0.79263944  0.17139165    -0.23700
F865        F  0.33751032  0.83524800  0.20612453    -0.21000
F866        F  0.37629155  0.83124999  0.17483840    -0.20700
F867        F  0.29536296  0.92557900  0.10044791    -0.20700
F868        F  0.33542725  0.92207994  0.07051828    -0.21000
F869        F  0.35539728  0.96545000  0.10460478    -0.23700
C870        C  0.34690861  0.90758498  0.39655947    -0.06600
C871        C  0.31258786  0.87646806  0.39206838    -0.00600
C872        C  0.30449652  0.85784481  0.36515896    -0.09200
C873        C  0.33170219  0.87059564  0.34363457    -0.06600
C874        C  0.36632965  0.90131765  0.34826939    -0.00600
C875        C  0.37395744  0.92077146  0.37484855    -0.09100
C876        C  0.41094679  0.95448164  0.38064393     0.61300
H877        H  0.35272163  0.92077484  0.41760512     0.12000
H878        H  0.32601483  0.85687169  0.32282438     0.12000
C879        C  0.26724035  0.82443136  0.35946138     0.61500
F880        F  0.41289417  0.96857891  0.40811741    -0.23700
F881        F  0.41757629  0.98143195  0.36077689    -0.21000
F882        F  0.43792737  0.94562388  0.37838758    -0.20700
F883        F  0.24027285  0.83276959  0.36462460    -0.20700
F884        F  0.26191059  0.79625651  0.37754299    -0.21000
F885        F  0.26372435  0.81243203  0.33107254    -0.23700
C886        C  0.52586664  0.84674262  0.12497109    -0.06600
C887        C  0.56153906  0.86733487  0.11358177    -0.00600
C888        C  0.58511427  0.90257794  0.12499223    -0.09200
C889        C  0.57213990  0.91552852  0.14753554    -0.06600
C890        C  0.53658844  0.89460002  0.15928303    -0.00600
C891        C  0.51280678  0.85950635  0.14741602    -0.09100
C892        C  0.47391904  0.83506141  0.15817250     0.61300
H893        H  0.50787319  0.81979877  0.11622819     0.12000
H894        H  0.59019233  0.94243513  0.15634974     0.12000
C895        C  0.62352088  0.92665871  0.11339886     0.61500
F896        F  0.45592500  0.80220332  0.14332978    -0.23700
F897        F  0.45410141  0.85230507  0.15426712    -0.21000
F898        F  0.47433267  0.82718323  0.18722104    -0.20700
F899        F  0.62231899  0.93108842  0.08376682    -0.20700
F900        F  0.64425947  0.91082757  0.11921610    -0.21000
F901        F  0.64078119  0.96092288  0.12607316    -0.23700
C902        C  0.57088124  0.89177010  0.34321387    -0.06600
C903        C  0.53915900  0.89413372  0.34538713    -0.00600
C904        C  0.51959523  0.88459922  0.37178020    -0.09200
C905        C  0.53207968  0.87224467  0.39498117    -0.06600
C906        C  0.56335494  0.86902214  0.39272502    -0.00600
C907        C  0.58311483  0.87882787  0.36626093    -0.09100
C908        C  0.61603321  0.87443151  0.36180247     0.61300
H909        H  0.58580938  0.89972340  0.32296897     0.12000
H910        H  0.51700854  0.86443408  0.41516236     0.12000
C911        C  0.48618290  0.88825063  0.37568391     0.61500
F912        F  0.62910409  0.88257724  0.33367073    -0.23700
F913        F  0.60658853  0.83874766  0.36732649    -0.21000
F914        F  0.64391380  0.89767464  0.38027000    -0.20700
F915        F  0.45817048  0.86334334  0.35809441    -0.20700
F916        F  0.49451032  0.92320070  0.36852719    -0.21000
F917        F  0.47392695  0.88176715  0.40400519    -0.23700
C918        C  0.64361705  0.06639329  0.14547370    -0.06600
C919        C  0.64061165  0.08778548  0.16739107    -0.00600
C920        C  0.66687120  0.12554970  0.16907816    -0.09200
C921        C  0.69433032  0.14073410  0.14787692    -0.06600
C922        C  0.69641309  0.11958339  0.12543053    -0.00600
C923        C  0.67094299  0.08188351  0.12408289    -0.09100
C924        C  0.67184616  0.05878074  0.09940563     0.61300
H925        H  0.62371498  0.03743263  0.14481283     0.12000
H926        H  0.71397332  0.16978588  0.14808816     0.12000
C927        C  0.66657690  0.14971724  0.19324841     0.61500
F928        F  0.64362869  0.02293517  0.10131863    -0.23700
F929        F  0.70455904  0.05919571  0.10001920    -0.21000
F930        F  0.66863946  0.07262064  0.07314425    -0.20700
F931        F  0.66640543  0.13477858  0.21992283    -0.20700
F932        F  0.63597660  0.15297969  0.19074299    -0.21000
F933        F  0.69700445  0.18449201  0.19229759    -0.23700
C934        C  0.69498492  0.14059332  0.35912078    -0.06600
C935        C  0.69927609  0.11921757  0.38011932    -0.00600
C936        C  0.67744526  0.08089779  0.37892194    -0.09200
C937        C  0.65002225  0.06527422  0.35755872    -0.06600
C938        C  0.64399669  0.08691944  0.33785730    -0.00600
C939        C  0.66784331  0.12522368  0.33777674    -0.09100
C940        C  0.66562739  0.14994756  0.31511343     0.61300
H941        H  0.71263830  0.16997371  0.36015716     0.12000
H942        H  0.63222662  0.03592224  0.35665704     0.12000
C943        C  0.68201950  0.05689017  0.40068221     0.61500
F944        F  0.69459137  0.18549050  0.31729079    -0.23700
F945        F  0.63378235  0.15074799  0.31862240    -0.21000
F946        F  0.66649637  0.13734843  0.28762317    -0.20700
F947        F  0.67580920  0.06494895  0.42841386    -0.20700
F948        F  0.71709257  0.06281909  0.39904553    -0.21000
F949        F  0.65784233  0.02025278  0.39537977    -0.23700
C950        C  0.42676794  0.06870417  0.15098088    -0.06600
C951        C  0.46135335  0.08831697  0.16455687    -0.00600
C952        C  0.48558081  0.12496740  0.15601792    -0.09200
C953        C  0.47391785  0.14028429  0.13467366    -0.06600
C954        C  0.43928815  0.12091980  0.12130230    -0.00600
C955        C  0.41530138  0.08430839  0.12943353    -0.09100
C956        C  0.37831777  0.06153663  0.11507859     0.61300
H957        H  0.40850505  0.04070094  0.15736135     0.12000
H958        H  0.49217739  0.16831985  0.12844096     0.12000
C959        C  0.52330618  0.14866994  0.16942207     0.61500
F960        F  0.36006599  0.02609117  0.12527940    -0.23700
F961        F  0.38273131  0.06045984  0.08542014    -0.21000
F962        F  0.35676757  0.07647388  0.12078543    -0.20700
F963        F  0.54471627  0.13338222  0.16428509    -0.20700
F964        F  0.52001382  0.15202573  0.19895792    -0.21000
F965        F  0.54153849  0.18353966  0.15789925    -0.23700
C966        C  0.42238901  0.07838178  0.34428584    -0.06600
C967        C  0.45670998  0.08097842  0.34636524    -0.00600
C968        C  0.47837904  0.09723003  0.37131922    -0.09200
C969        C  0.46641605  0.11332428  0.39190940    -0.06600
C970        C  0.43330980  0.11313518  0.38881027    -0.00600
C971        C  0.41012137  0.09402378  0.36513435    -0.09100
C972        C  0.37331205  0.09108833  0.36117630     0.61300
H973        H  0.40550128  0.06477276  0.32556657     0.12000
H974        H  0.48358215  0.12718073  0.41046439     0.12000
C975        C  0.51341528  0.09686792  0.37671383     0.61500
F976        F  0.35512267  0.07086298  0.33682318    -0.23700
F977        F  0.37801131  0.12552037  0.35812079    -0.21000
F978        F  0.35152515  0.07402519  0.38501638    -0.20700
F979        F  0.53982094  0.11937185  0.35703906    -0.20700
F980        F  0.50687301  0.06168535  0.37384885    -0.21000
F981        F  0.52697764  0.10895100  0.40437337    -0.23700
N982        N  0.43833107  0.94383006  0.78579351    -0.06900
N983        N  0.41911719  0.92001066  0.80644322    -0.59000
N984        N  0.43139262  0.97119262  0.71918096    -0.06600
N985        N  0.40587334  0.96457038  0.69993102    -0.61100
N986        N  0.43966905  0.94535070  0.71885473    -0.06200
N987        N  0.41981028  0.92067586  0.69906687    -0.59000
N988        N  0.42970342  0.96944697  0.78482253    -0.05800
N989        N  0.40478371  0.96373890  0.80433326    -0.61500
C990        C  0.39854905  0.93315373  0.81784626     0.95300
C991        C  0.39878533  0.93297572  0.68744007     0.95100
N992        N  0.50756695  0.08309386  0.72127278    -0.07100
N993        N  0.51327784  0.10746122  0.70103929    -0.59600
N994        N  0.47190106  0.05379335  0.78675067    -0.05200
N995        N  0.45236933  0.05667446  0.80755299    -0.60800
N996        N  0.50638887  0.07977966  0.78866118    -0.07100
N997        N  0.51095406  0.10100973  0.81125617    -0.59900
N998        N  0.47320280  0.05667051  0.72067284    -0.04800
N999        N  0.45492931  0.06255486  0.70035734    -0.60900
Mn1000     Mn  0.45115347  0.01279597  0.75266984     1.18400
C1001       C  0.48021703  0.09419569  0.68798841     0.97400
C1002       C  0.47689043  0.08592435  0.82283069     0.98000
N1003       N  0.51532701  0.94603749  0.71822460    -0.07100
N1004       N  0.51098088  0.92309386  0.69701134    -0.63400
N1005       N  0.54943369  0.97045666  0.78496542    -0.05900
N1006       N  0.56871144  0.96475393  0.80444085    -0.64100
N1007       N  0.51493646  0.94431514  0.78559541    -0.06600
N1008       N  0.51017927  0.92018191  0.80581084    -0.63700
N1009       N  0.54957065  0.97271797  0.71904320    -0.05500
N1010       N  0.56910797  0.96862718  0.69890921    -0.64400
Mn1011     Mn  0.47626423  0.94333786  0.75220884     1.10700
C1012       C  0.54485105  0.93785583  0.68504525     0.98600
C1013       C  0.54400288  0.93351948  0.81756449     0.98700
N1014       N  0.58253641  0.08078098  0.78792177    -0.06600
N1015       N  0.60095843  0.10313224  0.80959271    -0.62000
N1016       N  0.59094576  0.05742296  0.72035713    -0.06000
N1017       N  0.61373673  0.06264524  0.69907058    -0.58700
N1018       N  0.58270190  0.08328609  0.72076314    -0.07300
N1019       N  0.59994478  0.10671070  0.69949892    -0.61600
N1020       N  0.59036821  0.05467853  0.78638787    -0.06300
N1021       N  0.61361171  0.05827341  0.80671258    -0.58800
Mn1022     Mn  0.54568020  0.08342051  0.75480673     1.20200
Mn1023     Mn  0.57052114  0.01395783  0.75264005     1.10100
Cl1024     Cl  0.51086721  0.01334371  0.75309949    -0.86700
C1025       C  0.62011196  0.08847235  0.82103322     0.95600
C1026       C  0.61934290  0.09350588  0.68618883     0.95400
N1027       N  0.92476612  0.49616642  0.78714890    -0.06900
N1028       N  0.90144672  0.49084317  0.80827801    -0.59000
N1029       N  0.95152872  0.53217962  0.72117501    -0.06600
N1030       N  0.94786618  0.55202368  0.70108321    -0.61100
N1031       N  0.92508675  0.49790123  0.71964681    -0.06200
N1032       N  0.90272360  0.49379743  0.69796189    -0.59000
N1033       N  0.95174735  0.53026108  0.78733499    -0.05800
N1034       N  0.94758124  0.54875648  0.80835690    -0.61500
C1035       C  0.91654560  0.52390229  0.82156740     0.95300
C1036       C  0.91736689  0.52803463  0.68680311     0.95100
N1037       N  0.06154130  0.56498919  0.71875520    -0.07100
N1038       N  0.08395031  0.58369351  0.69717124    -0.59600
N1039       N  0.03671542  0.57191249  0.78638925    -0.05200
N1040       N  0.04287315  0.59657691  0.80622603    -0.60800
N1041       N  0.06303944  0.56429124  0.78595476    -0.07100
N1042       N  0.08782635  0.58400974  0.80583010    -0.59900
N1043       N  0.03579666  0.57339353  0.72068082    -0.04800
N1044       N  0.03999155  0.59747014  0.70088795    -0.60900
Mn1045     Mn  0.99399301  0.55227100  0.75404642     1.18400
C1046       C  0.06986291  0.60366451  0.68611552     0.97400
C1047       C  0.07474350  0.60400713  0.81829790     0.98000
N1048       N  0.92517970  0.42274545  0.71896372    -0.07100
N1049       N  0.90436333  0.40788466  0.69584307    -0.63400
N1050       N  0.95044222  0.41307525  0.78537855    -0.05900
N1051       N  0.94649574  0.39029265  0.80615701    -0.64100
N1052       N  0.92444231  0.42113480  0.78624728    -0.06600
N1053       N  0.90216431  0.40378180  0.80818369    -0.63700
N1054       N  0.95083525  0.41423418  0.71974291    -0.05500
N1055       N  0.94825011  0.39382835  0.69749468    -0.64400
Mn1056     Mn  0.92301980  0.45844989  0.75292889     1.10700
C1057       C  0.91932786  0.39006678  0.68261882     0.98600
C1058       C  0.91654212  0.38476580  0.82038417     0.98700
N1059       N  0.06187496  0.48826652  0.78602515    -0.06600
N1060       N  0.08480982  0.49286887  0.80738211    -0.62000
N1061       N  0.03449569  0.45359803  0.71960867    -0.06000
N1062       N  0.03836336  0.43353878  0.69979009    -0.58700
N1063       N  0.06092253  0.48788354  0.71812714    -0.07300
N1064       N  0.08351967  0.49169810  0.69676110    -0.61600
N1065       N  0.03502384  0.45409181  0.78560027    -0.06300
N1066       N  0.03906101  0.43492887  0.80613244    -0.58800
Mn1067     Mn  0.06363757  0.52726861  0.75203389     1.20200
Mn1068     Mn  0.99254115  0.43327281  0.75267539     1.10100
Cl1069     Cl  0.99336975  0.49287738  0.75289904    -0.86700
C1070       C  0.07000167  0.45927811  0.81987364     0.95600
C1071       C  0.06874389  0.45743707  0.68544661     0.95400
N1072       N  0.50311844  0.42185612  0.78666656    -0.06900
N1073       N  0.50776392  0.40441879  0.80851332    -0.59000
N1074       N  0.46927893  0.41318221  0.71986323    -0.06600
N1075       N  0.45078894  0.39016864  0.69886883    -0.61100
N1076       N  0.50358561  0.42152153  0.71972882    -0.06200
N1077       N  0.50933085  0.40453488  0.69824139    -0.59000
N1078       N  0.46874786  0.41326667  0.78547360    -0.05800
N1079       N  0.44937624  0.39002815  0.80604011    -0.61500
C1080       C  0.47388623  0.38483476  0.82040621     0.95300
C1081       C  0.47608655  0.38523892  0.68553914     0.95100
N1082       N  0.43581103  0.49000632  0.71916201    -0.07100
N1083       N  0.41721230  0.49486025  0.69836577    -0.59600
N1084       N  0.42768026  0.45556795  0.78539312    -0.05200
N1085       N  0.40386719  0.43599933  0.80556531    -0.60800
N1086       N  0.43638424  0.48996364  0.78665015    -0.07100
N1087       N  0.41817582  0.49428057  0.80817703    -0.59900
N1088       N  0.42732903  0.45567038  0.71951387    -0.04800
N1089       N  0.40300857  0.43663911  0.69934523    -0.60900
Mn1090     Mn  0.44778110  0.43399404  0.75241775     1.18400
C1091       C  0.39705644  0.46130634  0.68604871     0.97400
C1092       C  0.39836949  0.46027050  0.81985113     0.98000
N1093       N  0.57890619  0.49587018  0.71869411    -0.07100
N1094       N  0.59641794  0.48994185  0.69764851    -0.63400
N1095       N  0.58837736  0.53189651  0.78418897    -0.05900
N1096       N  0.61260350  0.55141429  0.80415729    -0.64100
N1097       N  0.57961223  0.49755693  0.78545132    -0.06600
N1098       N  0.59810061  0.49307772  0.80647877    -0.63700
N1099       N  0.58704230  0.53006776  0.71819540    -0.05500
N1100       N  0.60990656  0.54804248  0.69698702    -0.64400
Mn1101     Mn  0.54208034  0.45839724  0.75281398     1.10700
C1102       C  0.61560626  0.52283640  0.68435081     0.98600
C1103       C  0.61855970  0.52704551  0.81786409     0.98700
N1104       N  0.51381038  0.56701107  0.78556846    -0.06600
N1105       N  0.51039223  0.58698920  0.80600282    -0.62000
N1106       N  0.54648228  0.57348571  0.71847289    -0.06000
N1107       N  0.56640770  0.59908372  0.69955969    -0.58700
N1108       N  0.51257815  0.56647275  0.71866979    -0.07300
N1109       N  0.50906825  0.58775384  0.69958091    -0.61600
N1110       N  0.54808728  0.57526600  0.78405408    -0.06300
N1111       N  0.56853051  0.60072625  0.80303502    -0.58800
Mn1112     Mn  0.47370354  0.52909059  0.75261965     1.20200
Mn1113     Mn  0.56784175  0.55292258  0.75114424     1.10100
Cl1114     Cl  0.50780828  0.49364884  0.75228700    -0.86700
C1115       C  0.54482724  0.60766459  0.81678832     0.95600
C1116       C  0.54299253  0.60789788  0.68777462     0.95400
N1117       N  0.83209817  0.58861577  0.94223301    -0.06900
N1118       N  0.85613563  0.59724899  0.92094595    -0.59000
N1119       N  0.74305716  0.55507032  0.94613870    -0.06600
N1120       N  0.71512038  0.53999949  0.92836893    -0.61100
N1121       N  0.76129218  0.59080545  0.94348960    -0.06200
N1122       N  0.74590623  0.60065780  0.92322405    -0.59000
N1123       N  0.81256765  0.55287964  0.94487149    -0.05800
N1124       N  0.82263221  0.53660936  0.92596205    -0.61500
C1125       C  0.84965066  0.56429768  0.91119381     0.95300
C1126       C  0.71679405  0.56846384  0.91442469     0.95100
N1127       N  0.71854604  0.50130363  0.50536771    -0.07100
N1128       N  0.68392645  0.48123394  0.51312339    -0.59600
N1129       N  0.78474614  0.49702290  0.99500150    -0.05200
N1130       N  0.80007722  0.47863557  0.98570928    -0.60800
N1131       N  0.79205502  0.50212711  0.50478004    -0.07100
N1132       N  0.80527246  0.48100189  0.51182243    -0.59900
N1133       N  0.71278555  0.49878915  0.99497725    -0.04800
N1134       N  0.67880964  0.48217171  0.98548771    -0.60900
Mn1135     Mn  0.76299600  0.52519508  0.97001310     1.18400
C1136       C  0.66540093  0.47399109  0.48764720     0.97400
C1137       C  0.81547491  0.47377246  0.48593113     0.98000
N1138       N  0.79459164  0.65472080  0.99102113    -0.07100
N1139       N  0.77959517  0.67320031  0.98081705    -0.63400
N1140       N  0.86858014  0.65715607  0.51753955    -0.05900
N1141       N  0.90161553  0.67436747  0.52903235    -0.64100
N1142       N  0.86701971  0.65218756  0.99104049    -0.06600
N1143       N  0.90085032  0.66890172  0.98090007    -0.63700
N1144       N  0.79520470  0.65623876  0.51747220    -0.05500
N1145       N  0.77939196  0.67337327  0.52876628    -0.64400
Mn1146     Mn  0.81462243  0.62307817  0.96626170     1.10700
C1147       C  0.77153311  0.68788487  0.50564576     0.98600
C1148       C  0.92232065  0.68024934  0.00496712     0.98700
N1149       N  0.81820725  0.55477472  0.55767777    -0.06600
N1150       N  0.83166105  0.53882141  0.57368371    -0.62000
N1151       N  0.76285692  0.58891083  0.56214781    -0.06000
N1152       N  0.74581605  0.59686699  0.58231877    -0.58700
N1153       N  0.74619394  0.55334467  0.55843392    -0.07300
N1154       N  0.71777904  0.53643750  0.57565023    -0.61600
N1155       N  0.83602036  0.59026297  0.56211120    -0.06300
N1156       N  0.86197915  0.59892039  0.58182819    -0.58800
Mn1157     Mn  0.76835419  0.52701738  0.53198647     1.20200
Mn1158     Mn  0.81623648  0.62444404  0.54059720     1.10100
Cl1159     Cl  0.79474959  0.58115829  0.49735905    -0.86700
C1160       C  0.85926748  0.56643410  0.58836701     0.95600
C1161       C  0.71746338  0.56371390  0.59007831     0.95400
N1162       N  0.76651465  0.16586205  0.94458838    -0.06900
N1163       N  0.75103541  0.14022638  0.92430423    -0.59000
N1164       N  0.81940356  0.25614630  0.94773343    -0.06600
N1165       N  0.83206473  0.28435254  0.93042987    -0.61100
N1166       N  0.83846230  0.23980019  0.94548880    -0.06200
N1167       N  0.86478067  0.25701304  0.92601493    -0.59000
N1168       N  0.74893180  0.18375695  0.94661761    -0.05800
N1169       N  0.72138373  0.17084546  0.92850300    -0.61500
C1170       C  0.72254251  0.14360105  0.91492885     0.95300
C1171       C  0.86041994  0.28502861  0.91700500     0.95100
N1172       N  0.79364449  0.29087754  0.50305196    -0.07100
N1173       N  0.80880911  0.32534526  0.51101728    -0.59600
N1174       N  0.71694637  0.20935692  0.99396741    -0.05200
N1175       N  0.68388639  0.19525647  0.98309414    -0.60800
N1176       N  0.71951942  0.21840915  0.50440478    -0.07100
N1177       N  0.68569239  0.20524141  0.51327926    -0.59900
N1178       N  0.78881488  0.28402510  0.99574155    -0.04800
N1179       N  0.80262206  0.31814803  0.98708950    -0.60900
Mn1180     Mn  0.76842269  0.23368768  0.97071114     1.18400
C1181       C  0.81940091  0.34378692  0.48563357     0.97400
C1182       C  0.66585491  0.19431883  0.48846441     0.98000
N1183       N  0.87002104  0.21033004  0.99478193    -0.07100
N1184       N  0.90391492  0.22660837  0.98498731    -0.63400
N1185       N  0.79396126  0.13879716  0.51463562    -0.05900
N1186       N  0.77750191  0.10571552  0.52604507    -0.64100
N1187       N  0.79761104  0.13559836  0.99405878    -0.06600
N1188       N  0.78257099  0.10192803  0.98387592    -0.63700
N1189       N  0.86827898  0.21163395  0.51403722    -0.05500
N1190       N  0.90155937  0.22744712  0.52516939    -0.64400
Mn1191     Mn  0.81888367  0.18715067  0.96898921     1.10700
C1192       C  0.92371933  0.23549959  0.50187309     0.98600
C1193       C  0.76865214  0.08306192  0.50293240     0.98700
N1194       N  0.74669382  0.19302753  0.55614077    -0.06600
N1195       N  0.71870691  0.18184380  0.57373019    -0.62000
N1196       N  0.83686425  0.24605644  0.55823353    -0.06000
N1197       N  0.86371902  0.26409679  0.57706750    -0.58700
N1198       N  0.81927555  0.26360953  0.55421498    -0.07300
N1199       N  0.83360164  0.29357151  0.56969298    -0.61600
N1200       N  0.76293537  0.17402473  0.55978867    -0.06300
N1201       N  0.74598027  0.14933149  0.58037879    -0.58800
Mn1202     Mn  0.76943396  0.24183965  0.52982557     1.20200
Mn1203     Mn  0.81605039  0.19186323  0.53750326     1.10100
Cl1204     Cl  0.79431841  0.21387919  0.49485111    -0.86700
C1205       C  0.71812101  0.15435294  0.58853957     0.95600
C1206       C  0.86144099  0.29395873  0.58386833     0.95400
N1207       N  0.24133813  0.83829401  0.93233854    -0.06900
N1208       N  0.25871173  0.86704754  0.91499357    -0.59000
N1209       N  0.18752561  0.74828918  0.93146750    -0.06600
N1210       N  0.17383905  0.72004139  0.91421027    -0.61100
N1211       N  0.16808409  0.76431322  0.93106349    -0.06200
N1212       N  0.14030902  0.74685732  0.91266731    -0.59000
N1213       N  0.25878172  0.82019603  0.93274803    -0.05800
N1214       N  0.28801932  0.83586780  0.91639318    -0.61500
C1215       C  0.28796209  0.86500985  0.90547965     0.95300
C1216       C  0.14453960  0.71909708  0.90257662     0.95100
N1217       N  0.21358746  0.71700169  0.52458114    -0.07100
N1218       N  0.19874864  0.68343590  0.53436916    -0.59600
N1219       N  0.28943188  0.78880839  0.97682215    -0.05200
N1220       N  0.32247939  0.80260971  0.96600990    -0.60800
N1221       N  0.28700707  0.78985959  0.52686288    -0.07100
N1222       N  0.31963940  0.80219394  0.53819714    -0.59900
N1223       N  0.21683947  0.71579467  0.97471572    -0.04800
N1224       N  0.20432495  0.68362029  0.96251334    -0.60900
Mn1225     Mn  0.23835731  0.76824751  0.95362805     1.18400
C1226       C  0.19213790  0.66305954  0.51010012     0.97400
C1227       C  0.34172877  0.81050546  0.51482935     0.98000
N1228       N  0.13767432  0.79104467  0.98328694    -0.07100
N1229       N  0.10351763  0.77506545  0.97389861    -0.63400
N1230       N  0.21175432  0.86827576  0.52276876    -0.05900
N1231       N  0.22787283  0.90248224  0.53211910    -0.64100
N1232       N  0.21180983  0.86523492  0.98478699    -0.06600
N1233       N  0.22855137  0.89956829  0.97610678    -0.63700
N1234       N  0.13763661  0.79522394  0.52150524    -0.05500
N1235       N  0.10354710  0.78039026  0.53053388    -0.64400
Mn1236     Mn  0.18881959  0.81550222  0.95711118     1.10700
C1237       C  0.08353657  0.77095073  0.50579950     0.98600
C1238       C  0.23839709  0.92285148  0.50749585     0.98700
N1239       N  0.25505583  0.81738857  0.57280341    -0.06600
N1240       N  0.28310837  0.83056373  0.59034589    -0.62000
N1241       N  0.16456034  0.76310664  0.57209820    -0.06000
N1242       N  0.13541382  0.74436318  0.58894623    -0.58700
N1243       N  0.18309450  0.74614649  0.57087066    -0.07300
N1244       N  0.16746646  0.71615944  0.58628398    -0.61600
N1245       N  0.23867570  0.83644640  0.57405059    -0.06300
N1246       N  0.25563176  0.86333990  0.59318734    -0.58800
Mn1247     Mn  0.23484479  0.76735606  0.54913894     1.20200
Mn1248     Mn  0.18740585  0.81664437  0.54847251     1.10100
Cl1249     Cl  0.21295017  0.79240182  0.50975938    -0.86700
C1250       C  0.28352708  0.85916532  0.60298814     0.95600
C1251       C  0.13770777  0.71488944  0.59751521     0.95400
N1252       N  0.50914549  0.78686920  0.53009646    -0.06900
N1253       N  0.48849079  0.79836520  0.54154151    -0.59000
N1254       N  0.51083800  0.71320213  0.97786619    -0.06600
N1255       N  0.49378743  0.67994008  0.96695987    -0.61100
N1256       N  0.51152782  0.71622401  0.53133587    -0.06200
N1257       N  0.49279618  0.68391614  0.54352102    -0.59000
N1258       N  0.50765595  0.78432602  0.97900468    -0.05800
N1259       N  0.48846463  0.79834794  0.96889373    -0.61500
C1260       C  0.47189184  0.80319491  0.51848544     0.95300
C1261       C  0.47728111  0.66096356  0.52092464     0.95100
N1262       N  0.60708268  0.76524613  0.93171681    -0.07100
N1263       N  0.61849011  0.74858827  0.91381698    -0.59600
N1264       N  0.56912284  0.81728288  0.93321797    -0.05200
N1265       N  0.55441541  0.83113453  0.91633716    -0.60800
N1266       N  0.60500136  0.83713903  0.93275005    -0.07100
N1267       N  0.61530180  0.86529640  0.91495043    -0.59900
N1268       N  0.57119775  0.74746411  0.93209516    -0.04800
N1269       N  0.55746088  0.71880427  0.91510629    -0.60900
Mn1270     Mn  0.53916654  0.76537193  0.95520207     1.18400
C1271       C  0.58684927  0.71947048  0.90377241     0.97400
C1272       C  0.58313084  0.86107042  0.90498001     0.98000
N1273       N  0.57417847  0.75053999  0.57470084    -0.07100
N1274       N  0.56045795  0.72250948  0.59219093    -0.63400
N1275       N  0.60830575  0.84058139  0.57380131    -0.05900
N1276       N  0.61892198  0.87011301  0.59013499    -0.64100
N1277       N  0.57246488  0.82071096  0.57383809    -0.06600
N1278       N  0.55802043  0.83574061  0.58962121    -0.63700
N1279       N  0.61005215  0.76810340  0.57489505    -0.05500
N1280       N  0.62147080  0.75192828  0.59332893    -0.64400
Mn1281     Mn  0.54165705  0.76855737  0.55276210     1.10700
C1282       C  0.58975539  0.72321529  0.60368239     0.98600
C1283       C  0.58687448  0.86651355  0.59975028     0.98700
N1284       N  0.66378420  0.86707068  0.98493305    -0.06600
N1285       N  0.68211030  0.90125768  0.97594753    -0.62000
N1286       N  0.66682181  0.79667482  0.52178880    -0.06000
N1287       N  0.68528263  0.78099109  0.53056299    -0.58700
N1288       N  0.66560940  0.79493401  0.98392560    -0.07300
N1289       N  0.68424272  0.77992900  0.97423480    -0.61600
N1290       N  0.66487207  0.86939213  0.52102287    -0.06300
N1291       N  0.68204011  0.90386297  0.52963954    -0.58800
Mn1292     Mn  0.63696266  0.81697133  0.95764612     1.20200
Mn1293     Mn  0.63929472  0.81957305  0.54865442     1.10100
Cl1294     Cl  0.58667503  0.79153849  0.51162736    -0.86700
C1295       C  0.69171442  0.92137447  0.00059948     0.95600
C1296       C  0.69358562  0.76942553  0.50576635     0.95400
N1297       N  0.16786108  0.39744239  0.93336086    -0.06900
N1298       N  0.13844209  0.38680795  0.91675813    -0.59000
N1299       N  0.25851014  0.43177464  0.93376887    -0.06600
N1300       N  0.28764337  0.44522345  0.91732912    -0.61100
N1301       N  0.24073655  0.39592502  0.93391117    -0.06200
N1302       N  0.25774310  0.38418310  0.91671276    -0.59000
N1303       N  0.18795780  0.43321845  0.93304546    -0.05800
N1304       N  0.17321363  0.44754019  0.91676691    -0.61500
C1305       C  0.14231109  0.41876307  0.90660906     0.95300
C1306       C  0.28717118  0.41564526  0.90683576     0.95100
N1307       N  0.28725569  0.49711814  0.52774106    -0.07100
N1308       N  0.31995931  0.51477978  0.53966105    -0.59600
N1309       N  0.22030704  0.49583483  0.97733474    -0.05200
N1310       N  0.20597103  0.51406710  0.96598582    -0.60800
N1311       N  0.21433829  0.49619147  0.52508714    -0.07100
N1312       N  0.20109442  0.51566839  0.53579914    -0.59900
N1313       N  0.29174849  0.49405368  0.97742860    -0.04800
N1314       N  0.32446491  0.51176851  0.96573919    -0.60900
Mn1315     Mn  0.23977067  0.46409643  0.95507871     1.18400
C1316       C  0.34283221  0.52822050  0.51668131     0.97400
C1317       C  0.19627116  0.53173809  0.51241097     0.98000
N1318       N  0.21097904  0.33966331  0.98780682    -0.07100
N1319       N  0.22713046  0.32137345  0.97983629    -0.63400
N1320       N  0.13765589  0.34132073  0.51722421    -0.05900
N1321       N  0.10322552  0.32343063  0.52579195    -0.64100
N1322       N  0.13820763  0.34160623  0.98667309    -0.06600
N1323       N  0.10391687  0.32413890  0.97758540    -0.63700
N1324       N  0.21133554  0.34217333  0.51876737    -0.05500
N1325       N  0.22659762  0.32371702  0.52824884    -0.64400
Mn1326     Mn  0.18857642  0.36684410  0.95966321     1.10700
C1327       C  0.23836433  0.31469473  0.50404061     0.98600
C1328       C  0.08393989  0.31658521  0.00218026     0.98700
N1329       N  0.18200125  0.43359071  0.56960697    -0.06600
N1330       N  0.16594801  0.44660006  0.58586156    -0.62000
N1331       N  0.23818086  0.39977529  0.57151575    -0.06000
N1332       N  0.25650740  0.38950236  0.58862683    -0.58700
N1333       N  0.25397670  0.43548499  0.57197614    -0.07300
N1334       N  0.28278479  0.45019182  0.58882523    -0.61600
N1335       N  0.16391997  0.39773309  0.56981070    -0.06300
N1336       N  0.13475080  0.38560459  0.58679259    -0.58800
Mn1337     Mn  0.23442574  0.46600743  0.54894283     1.20200
Mn1338     Mn  0.18705814  0.36860035  0.54505248     1.10100
Cl1339     Cl  0.21358726  0.42045548  0.50792505    -0.86700
C1340       C  0.13652347  0.41673438  0.59649409     0.95600
C1341       C  0.28447406  0.42164868  0.59917584     0.95400
N1342       N  0.50643219  0.22138435  0.50717595    -0.11400
N1343       N  0.52602902  0.20768687  0.51698546    -0.59000
N1344       N  0.50334999  0.28758638  0.99624434    -0.06600
N1345       N  0.52187452  0.32184234  0.98751415    -0.61100
N1346       N  0.50408217  0.29266956  0.50416320    -0.06200
N1347       N  0.52209340  0.32709724  0.51237417    -0.59000
N1348       N  0.50383053  0.21507899  0.99512501    -0.05800
N1349       N  0.52198483  0.19990989  0.98513928    -0.61500
C1350       C  0.53472707  0.19582943  0.49275944     0.95300
C1351       C  0.53001598  0.34582462  0.48718152     0.95100
N1352       N  0.41017154  0.23974585  0.94507936    -0.07100
N1353       N  0.40023792  0.25646171  0.92604967    -0.59600
N1354       N  0.44648858  0.18663574  0.94671949    -0.05200
N1355       N  0.46180475  0.17324863  0.92997026    -0.60800
N1356       N  0.41066711  0.16729533  0.94477361    -0.07100
N1357       N  0.40097142  0.14024710  0.92597034    -0.59900
N1358       N  0.44596581  0.25761516  0.94736579    -0.04800
N1359       N  0.46098306  0.28645435  0.93054346    -0.60900
Mn1360     Mn  0.47558374  0.23714830  0.97094809     1.18400
C1361       C  0.43246849  0.28576053  0.91731639     0.97400
C1362       C  0.43340748  0.14435504  0.91713827     0.98000
N1363       N  0.44978184  0.26554839  0.55463969    -0.07100
N1364       N  0.46510079  0.29435851  0.57154132    -0.63400
N1365       N  0.41673422  0.17659837  0.56210876    -0.05900
N1366       N  0.40877466  0.15271112  0.58338949    -0.64100
N1367       N  0.45236764  0.19604483  0.55875349    -0.06600
N1368       N  0.46909826  0.18591006  0.57721017    -0.63700
N1369       N  0.41413362  0.24714366  0.55797053    -0.05500
N1370       N  0.40455291  0.26319432  0.57776293    -0.64400
Mn1371     Mn  0.47889796  0.24424477  0.53142768     1.10700
C1372       C  0.43678545  0.29276010  0.58579705     0.98600
C1373       C  0.44189638  0.15876736  0.59256743     0.98700
N1374       N  0.34785832  0.13442462  0.99359476    -0.06600
N1375       N  0.33037577  0.10049226  0.98365219    -0.62000
N1376       N  0.34893209  0.21101673  0.51210401    -0.06000
N1377       N  0.33184173  0.22767294  0.52176236    -0.58700
N1378       N  0.34786457  0.20784629  0.99362838    -0.07300
N1379       N  0.33086453  0.22402473  0.98302025    -0.61600
N1380       N  0.35137638  0.13904629  0.51558667    -0.06300
N1381       N  0.33489717  0.10639783  0.52774784    -0.58800
Mn1382     Mn  0.37762341  0.18646018  0.96850597     1.20200
Mn1383     Mn  0.38140018  0.19268686  0.53760951     1.10100
Cl1384     Cl  0.42653720  0.21445939  0.49550438    -0.86700
C1385       C  0.31855678  0.07934805  0.00782784     0.95600
C1386       C  0.31851508  0.23514703  0.49759269     0.95400
C1387       C  0.29149908  0.26639220  0.52517342    -0.06600
C1388       C  0.29758434  0.25524329  0.49800305    -0.00600
C1389       C  0.28404771  0.26407153  0.47284944    -0.09200
C1390       C  0.26466828  0.28282741  0.47616978    -0.06600
C1391       C  0.25863708  0.29397990  0.50336415    -0.00600
C1392       C  0.27281258  0.28578761  0.52844285    -0.09100
C1393       C  0.26918795  0.29778784  0.55873303     0.61300
H1394       H  0.30189200  0.25993731  0.54426446     0.12000
H1395       H  0.25412367  0.28922434  0.45712259     0.12000
C1396       C  0.29019007  0.25453503  0.44239443     0.61500
F1397       F  0.28683315  0.28879758  0.57948100    -0.23700
F1398       F  0.23272688  0.28087625  0.56640053    -0.21000
F1399       F  0.28613643  0.33968069  0.06046616    -0.20700
F1400       F  0.27443619  0.21715010  0.43967125    -0.20700
F1401       F  0.32904054  0.26831410  0.94410521    -0.21000
F1402       F  0.27641211  0.26059242  0.92729168    -0.23700
C1403       C  0.39438838  0.57318189  0.54624880    -0.06600
C1404       C  0.38212724  0.55561351  0.51935343    -0.00600
C1405       C  0.40635038  0.56782408  0.49541325    -0.09200
C1406       C  0.43920512  0.60118312  0.49791697    -0.06600
C1407       C  0.44853406  0.62207627  0.52343147    -0.00600
C1408       C  0.42727283  0.60655969  0.54889864    -0.09100
C1409       C  0.43703814  0.62558822  0.57829012     0.61300
H1410       H  0.37645702  0.56228931  0.56481780     0.12000
H1411       H  0.45669214  0.61234708  0.47907819     0.12000
C1412       C  0.39751673  0.54712225  0.46689148     0.61500
F1413       F  0.41369710  0.60361824  0.59998627    -0.23700
F1414       F  0.45513361  0.63181605  0.05755214    -0.21000
F1415       F  0.47202590  0.63449292  0.58614023    -0.20700
F1416       F  0.35700645  0.56494311  0.92823409    -0.20700
F1417       F  0.38207265  0.51015033  0.47201266    -0.21000
F1418       F  0.42870340  0.55823538  0.45055442    -0.23700
C1419       C  0.27884838  0.98311390  0.53136506    -0.06600
C1420       C  0.25886398  0.96383756  0.50664488    -0.00600
C1421       C  0.28454044  0.98293140  0.97963690    -0.09200
C1422       C  0.30238362  0.02124936  0.98263038    -0.06600
C1423       C  0.30030123  0.04189067  0.50742487    -0.00600
C1424       C  0.29969198  0.02171478  0.53230887    -0.09100
C1425       C  0.32125649  0.04025942  0.55965533     0.61300
H1426       H  0.27840131  0.96751106  0.55004442     0.12000
H1427       H  0.31980588  0.03842472  0.96532227     0.12000
C1428       C  0.29163946  0.96706139  0.95256011     0.61500
F1429       F  0.24438901  0.00495410  0.07603256    -0.23700
F1430       F  0.25742904  0.05499125  0.05090159    -0.21000
F1431       F  0.35778963  0.06279827  0.55294898    -0.20700
F1432       F  0.26043087  0.95005079  0.93566702    -0.20700
F1433       F  0.25199375  0.94772179  0.44064001    -0.21000
F1434       F  0.23743914  0.99089443  0.43540006    -0.23700
C1435       C  0.18669325  0.61145642  0.53763795    -0.06600
C1436       C  0.18248111  0.62447533  0.51088718    -0.00600
C1437       C  0.19491728  0.60764682  0.95756550    -0.09200
C1438       C  0.19440237  0.57461340  0.96021376    -0.06600
C1439       C  0.18694175  0.56082500  0.51380119    -0.00600
C1440       C  0.18981937  0.58039078  0.53970984    -0.09100
C1441       C  0.19884288  0.57094926  0.56925955     0.61300
H1442       H  0.19066996  0.62760015  0.55686903     0.12000
H1443       H  0.20169842  0.56401136  0.94171345     0.12000
C1444       C  0.20508377  0.62693525  0.92833977     0.61500
F1445       F  0.20005818  0.59405714  0.59096384    -0.23700
F1446       F  0.23282433  0.57403062  0.56837620    -0.21000
F1447       F  0.17240955  0.53588730  0.57696186    -0.20700
F1448       F  0.23826493  0.65918999  0.93045004    -0.20700
F1449       F  0.17820014  0.63396016  0.91945452    -0.21000
F1450       F  0.20855130  0.60603943  0.90693060    -0.23700
C1451       C  0.43310085  0.81808929  0.96526333    -0.06600
C1452       C  0.44266580  0.81227048  0.52026145    -0.00600
C1453       C  0.42135542  0.80664560  0.54560401    -0.09200
C1454       C  0.39002102  0.80938098  0.54317897    -0.06600
C1455       C  0.37945615  0.81756751  0.51676765    -0.00600
C1456       C  0.40113660  0.81979373  0.96276241    -0.09100
C1457       C  0.38717547  0.82085493  0.93261690     0.61300
H1458       H  0.44569802  0.81525514  0.94582339     0.12000
H1459       H  0.37222724  0.80286255  0.56176675     0.12000
C1460       C  0.42984226  0.79598642  0.57481757     0.61500
F1461       F  0.41319391  0.82836838  0.91150297    -0.23700
F1462       F  0.37851676  0.84801919  0.93135359    -0.21000
F1463       F  0.35674460  0.78750902  0.92599768    -0.20700
F1464       F  0.46455285  0.82207433  0.58370623    -0.20700
F1465       F  0.42727152  0.76235848  0.57267366    -0.21000
F1466       F  0.40586088  0.79343841  0.59626362    -0.23700
C1467       C  0.72201946  0.02260648  0.48290883    -0.06600
C1468       C  0.74813984  0.04220772  0.50452754    -0.00600
C1469       C  0.75646519  0.01772678  0.02863256    -0.09200
C1470       C  0.73574055  0.97933499  0.02564915    -0.06600
C1471       C  0.71263480  0.96221911  0.00174174    -0.00600
C1472       C  0.70152548  0.98402503  0.48239234    -0.09100
C1473       C  0.67157851  0.96488590  0.45983521     0.61300
H1474       H  0.71737873  0.03793305  0.46645532     0.12000
H1475       H  0.73780240  0.96222002  0.04196921     0.12000
C1476       C  0.78251768  0.03423151  0.05416079     0.61500
F1477       F  0.68174912  0.99415614  0.93828644    -0.23700
F1478       F  0.64936526  0.94269736  0.96349316    -0.21000
F1479       F  0.68126439  0.94682606  0.44010629    -0.20700
F1480       F  0.77080270  0.05199547  0.07239575    -0.20700
F1481       F  0.81587745  0.06545336  0.53831495    -0.21000
F1482       F  0.78615001  0.01729643  0.56767977    -0.23700
C1483       C  0.98324997  0.27541742  0.47794064    -0.06600
C1484       C  0.96461461  0.25567729  0.50280417    -0.00600
C1485       C  0.98537481  0.25555205  0.52696739    -0.09200
C1486       C  0.02386544  0.27516026  0.52506098    -0.06600
C1487       C  0.04256325  0.29475226  0.50008532    -0.00600
C1488       C  0.02170461  0.29511866  0.47607224    -0.09100
C1489       C  0.03778822  0.32686724  0.95695467     0.61300
H1490       H  0.96722113  0.27553050  0.45974123     0.12000
H1491       H  0.03981654  0.27511703  0.54332783     0.12000
C1492       C  0.96751223  0.23428827  0.55449747     0.61500
F1493       F  0.01394428  0.31550263  0.42932439    -0.23700
F1494       F  0.05768868  0.30170496  0.43472046    -0.21000
F1495       F  0.06439373  0.36099953  0.96662901    -0.20700
F1496       F  0.94319460  0.19814808  0.54774663    -0.20700
F1497       F  0.95333223  0.23941134  0.07389195    -0.21000
F1498       F  0.99739252  0.22559544  0.07215906    -0.23700
C1499       C  0.57250798  0.17441903  0.98200968    -0.06600
C1500       C  0.56134683  0.18341755  0.49154260    -0.00600
C1501       C  0.57554833  0.17575934  0.51653720    -0.09200
C1502       C  0.60860058  0.17631256  0.51400540    -0.06600
C1503       C  0.62677467  0.18294005  0.48732998    -0.00600
C1504       C  0.60422649  0.17234343  0.97977756    -0.09100
C1505       C  0.61788195  0.17044393  0.94971718     0.61300
H1506       H  0.56008738  0.17723108  0.96240382     0.12000
H1507       H  0.62157052  0.17385072  0.53340263     0.12000
C1508       C  0.55723557  0.16811048  0.54595863     0.61500
F1509       F  0.59098851  0.16067812  0.92888860    -0.23700
F1510       F  0.62816251  0.14440594  0.94924852    -0.21000
F1511       F  0.64711505  0.20409984  0.94205836    -0.20700
F1512       F  0.51980448  0.14580195  0.54302336    -0.20700
F1513       F  0.56520798  0.20047766  0.55926959    -0.21000
F1514       F  0.56937489  0.15024622  0.56368834    -0.23700
C1515       C  0.02430583  0.73214118  0.53042687    -0.06600
C1516       C  0.04277198  0.75127692  0.50528709    -0.00600
C1517       C  0.02200771  0.75116963  0.48109638    -0.09200
C1518       C  0.98361749  0.73070187  0.48274079    -0.06600
C1519       C  0.96506683  0.71073945  0.50758901    -0.00600
C1520       C  0.98588885  0.71186048  0.53220557    -0.09100
C1521       C  0.96836212  0.69152610  0.56019475     0.61300
H1522       H  0.04041803  0.73273078  0.54881498     0.12000
H1523       H  0.96764968  0.73006696  0.46424217     0.12000
C1524       C  0.03974118  0.77276923  0.45367607     0.61500
F1525       F  0.99408490  0.69538124  0.58053641    -0.23700
F1526       F  0.94621715  0.65464910  0.55454095    -0.21000
F1527       F  0.95178423  0.69322034  0.07031415    -0.20700
F1528       F  0.05723776  0.75754787  0.43919401    -0.20700
F1529       F  0.05899427  0.80079699  0.95598991    -0.21000
F1530       F  0.00811684  0.76397241  0.93116906    -0.23700
C1531       C  0.73345684  0.74926082  0.52956277    -0.06600
C1532       C  0.71360697  0.74848797  0.50479963    -0.00600
C1533       C  0.71292314  0.72727099  0.48054666    -0.09200
C1534       C  0.73216430  0.70828535  0.48209365    -0.06600
C1535       C  0.75189084  0.70902639  0.50681572    -0.00600
C1536       C  0.75268675  0.73017174  0.53106116    -0.09100
C1537       C  0.76328605  0.72542547  0.05821520     0.61300
H1538       H  0.72636651  0.75938832  0.04400895     0.12000
H1539       H  0.73167696  0.69218819  0.46372929     0.12000
C1540       C  0.69167945  0.72381180  0.45305782     0.61500
F1541       F  0.77476776  0.75858356  0.57770786    -0.23700
F1542       F  0.81023369  0.74516576  0.55100349    -0.21000
F1543       F  0.74498671  0.69005765  0.06853049    -0.20700
F1544       F  0.70689651  0.75735526  0.43948470    -0.20700
F1545       F  0.66776783  0.71839311  0.94567206    -0.21000
F1546       F  0.69227513  0.69943947  0.43349321    -0.23700
C1547       C  0.84312656  0.43921532  0.50472722    -0.06600
C1548       C  0.82573912  0.44584439  0.48166647    -0.00600
C1549       C  0.81512745  0.42309281  0.45659121    -0.09200
C1550       C  0.81763977  0.39161996  0.45763542    -0.06600
C1551       C  0.82994179  0.38233358  0.48253628    -0.00600
C1552       C  0.84645248  0.40811650  0.50513852    -0.09100
C1553       C  0.86624574  0.40256135  0.53011766     0.61300
H1554       H  0.85279802  0.45771720  0.52307565     0.12000
H1555       H  0.80683592  0.37233322  0.43986139     0.12000
C1556       C  0.79862930  0.42975997  0.42959955     0.61500
F1557       F  0.89221962  0.43572155  0.54189844    -0.23700
F1558       F  0.84146490  0.36590985  0.07399189    -0.21000
F1559       F  0.84146377  0.38211838  0.55146462    -0.20700
F1560       F  0.86577766  0.49104086  0.96609637    -0.20700
F1561       F  0.76634444  0.42843273  0.43660726    -0.21000
F1562       F  0.79062705  0.40380368  0.40828140    -0.23700
C1563       C  0.60438001  0.43779426  0.50986705    -0.06600
C1564       C  0.62564286  0.44814256  0.48455554    -0.00600
C1565       C  0.60868557  0.43121717  0.45773840    -0.09200
C1566       C  0.57431890  0.39913997  0.45869925    -0.06600
C1567       C  0.55603776  0.38546885  0.48503432    -0.00600
C1568       C  0.56861377  0.40796295  0.50990581    -0.09100
C1569       C  0.54521341  0.40141838  0.53647409     0.61300
H1570       H  0.61583315  0.45278524  0.52985572     0.12000
H1571       H  0.56304530  0.38302420  0.43919212     0.12000
C1572       C  0.62663775  0.44515697  0.42835493     0.61500
F1573       F  0.55052683  0.43442031  0.54649572    -0.23700
F1574       F  0.57176361  0.35479860  0.07300995    -0.21000
F1575       F  0.50841100  0.37947220  0.53018882    -0.20700
F1576       F  0.61523978  0.44085298  0.93745727    -0.20700
F1577       F  0.63831801  0.48188307  0.42582628    -0.21000
F1578       F  0.60254905  0.42723254  0.40575571    -0.23700
C1579       C  0.43878541  0.32564978  0.66245131    -0.06600
C1580       C  0.46755748  0.36180072  0.66007948    -0.00600
C1581       C  0.48470511  0.37567384  0.63316022    -0.09200
C1582       C  0.47168397  0.35261153  0.60890215    -0.06600
C1583       C  0.44305221  0.31617968  0.61115639    -0.00600
C1584       C  0.42676686  0.30200722  0.63848278    -0.09100
C1585       C  0.39827216  0.26199593  0.64278166     0.61300
H1586       H  0.42617575  0.31597588  0.68346916     0.12000
H1587       H  0.48451831  0.36256622  0.58801532     0.12000
C1588       C  0.51623082  0.41465816  0.63013165     0.61500
F1589       F  0.38884939  0.25376441  0.67167978    -0.23700
F1590       F  0.41176868  0.24031400  0.63320731    -0.21000
F1591       F  0.36695308  0.25352887  0.62748129    -0.20700
F1592       F  0.54572253  0.41931502  0.64629146    -0.20700
F1593       F  0.50575800  0.43873232  0.63982087    -0.21000
F1594       F  0.52746788  0.42326284  0.60167035    -0.23700
C1595       C  0.43104316  0.32612465  0.84386838    -0.06600
C1596       C  0.46354691  0.36019697  0.84571483    -0.00600
C1597       C  0.48304215  0.37104715  0.87212227    -0.09200
C1598       C  0.46996557  0.34667374  0.89565237    -0.06600
C1599       C  0.43849950  0.31171581  0.89348185    -0.00600
C1600       C  0.41839209  0.30127964  0.86720275    -0.09100
C1601       C  0.38488403  0.26368042  0.86318627     0.61300
H1602       H  0.41614908  0.31877003  0.82366286     0.12000
H1603       H  0.48514478  0.35432728  0.91581299     0.12000
C1604       C  0.51731358  0.40822871  0.87553127     0.61500
F1605       F  0.37030029  0.25891348  0.83557481    -0.23700
F1606       F  0.35818577  0.25884352  0.88279004    -0.21000
F1607       F  0.39411704  0.23722379  0.86752055    -0.20700
F1608       F  0.51045665  0.43536405  0.86711141    -0.20700
F1609       F  0.54495109  0.40992784  0.85858964    -0.21000
F1610       F  0.52935523  0.41497431  0.90395670    -0.23700
C1611       C  0.69524688  0.53635994  0.63790044    -0.06600
C1612       C  0.69292562  0.55645464  0.61477989    -0.00600
C1613       C  0.66436766  0.56409541  0.61383811    -0.09200
C1614       C  0.63951745  0.55248096  0.63706845    -0.06600
C1615       C  0.64143904  0.53184483  0.66008189    -0.00600
C1616       C  0.66968998  0.52350616  0.66060284    -0.09100
C1617       C  0.67313048  0.50147630  0.68497507     0.61300
H1618       H  0.71690078  0.53003737  0.63759574     0.12000
H1619       H  0.61778559  0.55868421  0.63711085     0.12000
C1620       C  0.65924070  0.58256258  0.58764620     0.61500
F1621       F  0.70457665  0.49960050  0.68248571    -0.23700
F1622       F  0.64355723  0.46625717  0.68428304    -0.21000
F1623       F  0.67426028  0.51729498  0.71148168    -0.20700
F1624       F  0.65423260  0.56171760  0.56312573    -0.20700
F1625       F  0.68979352  0.61674913  0.58393316    -0.21000
F1626       F  0.62912031  0.58661574  0.59058748    -0.23700
C1627       C  0.64856059  0.56569587  0.86044544    -0.06600
C1628       C  0.64485869  0.53767027  0.84191773    -0.00600
C1629       C  0.66797416  0.52310315  0.84554054    -0.09200
C1630       C  0.69256815  0.53577331  0.86883404    -0.06600
C1631       C  0.69502920  0.56252046  0.88810283    -0.00600
C1632       C  0.67345763  0.57849579  0.88364945    -0.09100
C1633       C  0.67590850  0.60787452  0.90376094     0.61300
H1634       H  0.63122619  0.57713040  0.85689522     0.12000
H1635       H  0.70978653  0.52423429  0.87261179     0.12000
C1636       C  0.66754174  0.49508497  0.82481742     0.61500
F1637       F  0.65181441  0.61916752  0.89581101    -0.23700
F1638       F  0.71087815  0.63788708  0.90298192    -0.21000
F1639       F  0.66777106  0.59469611  0.93182453    -0.20700
F1640       F  0.67168940  0.50758068  0.79658279    -0.20700
F1641       F  0.63490911  0.46240587  0.82738745    -0.21000
F1642       F  0.69560480  0.48844161  0.83056000    -0.23700
C1643       C  0.55682804  0.69232870  0.64773887    -0.06600
C1644       C  0.58466366  0.69847435  0.62807154    -0.00600
C1645       C  0.59989064  0.67582161  0.62895511    -0.09200
C1646       C  0.58534885  0.64657167  0.64885407    -0.06600
C1647       C  0.55559220  0.63887364  0.66713985    -0.00600
C1648       C  0.54152047  0.66268938  0.66695778    -0.09100
C1649       C  0.51048123  0.65720938  0.68663731     0.61300
H1650       H  0.54572052  0.71021651  0.64685274     0.12000
H1651       H  0.59648537  0.62871059  0.64963197     0.12000
C1652       C  0.63003350  0.68153089  0.60824935     0.61500
F1653       F  0.50336417  0.68542556  0.68427641    -0.23700
F1654       F  0.51930528  0.65561511  0.71527194    -0.21000
F1655       F  0.47891309  0.62523126  0.67916766    -0.20700
F1656       F  0.65983350  0.71626657  0.61184244    -0.20700
F1657       F  0.61765214  0.67737654  0.57995701    -0.21000
F1658       F  0.64146152  0.65679984  0.61306714    -0.23700
C1659       C  0.58814176  0.66993026  0.83528064    -0.06600
C1660       C  0.55648026  0.63568906  0.83987822    -0.00600
C1661       C  0.53853451  0.62820138  0.86690377    -0.09200
C1662       C  0.55200943  0.65575043  0.88805469    -0.06600
C1663       C  0.58208319  0.69083163  0.88289492    -0.00600
C1664       C  0.60093915  0.69810124  0.85620169    -0.09100
C1665       C  0.63294922  0.73567916  0.84925082     0.61300
H1666       H  0.60201512  0.67487019  0.81462346     0.12000
H1667       H  0.53780598  0.65055340  0.90858235     0.12000
C1668       C  0.50502790  0.59147280  0.87333126     0.61500
F1669       F  0.64719088  0.73687194  0.82199995    -0.23700
F1670       F  0.66047935  0.74520825  0.86939404    -0.21000
F1671       F  0.62175260  0.76100434  0.84995938    -0.20700
F1672       F  0.51202765  0.56379261  0.86720414    -0.20700
F1673       F  0.47624548  0.58728206  0.85646523    -0.21000
F1674       F  0.49471409  0.58828888  0.90215982    -0.23700
C1675       C  0.33805799  0.41587750  0.66352999    -0.06600
C1676       C  0.36940726  0.45109443  0.66265942    -0.00600
C1677       C  0.37395234  0.47446104  0.63925110    -0.09200
C1678       C  0.34642509  0.46204013  0.61806410    -0.06600
C1679       C  0.31406653  0.42770162  0.61972216    -0.00600
C1680       C  0.30992472  0.40384943  0.64264312    -0.09100
C1681       C  0.27562029  0.36671573  0.64581761     0.61300
H1682       H  0.33518761  0.39812203  0.68136959     0.12000
H1683       H  0.34958369  0.47993211  0.60023951     0.12000
C1684       C  0.40763506  0.51222229  0.63627593     0.61500
F1685       F  0.27698201  0.34832321  0.67008436    -0.23700
F1686       F  0.27145332  0.34550444  0.62176327    -0.21000
F1687       F  0.24549562  0.37080009  0.64845293    -0.20700
F1688       F  0.43882971  0.50982731  0.63774116    -0.20700
F1689       F  0.40820169  0.53464440  0.65823901    -0.21000
F1690       F  0.40819176  0.52842808  0.61010269    -0.23700
C1691       C  0.35149032  0.44282503  0.89310933    -0.06600
C1692       C  0.31468667  0.41989615  0.88524138    -0.00600
C1693       C  0.30555784  0.41064899  0.85571866    -0.09200
C1694       C  0.33382832  0.42463701  0.83499579    -0.06600
C1695       C  0.37039557  0.44868492  0.84281082    -0.00600
C1696       C  0.37961760  0.45736929  0.87233723    -0.09100
C1697       C  0.41897620  0.48176030  0.88168564     0.61300
H1698       H  0.35786925  0.45040427  0.91574820     0.12000
H1699       H  0.32750368  0.41761465  0.81228608     0.12000
C1700       C  0.26605638  0.38783016  0.84607842     0.61500
F1701       F  0.42216318  0.48774195  0.91135485    -0.23700
F1702       F  0.43328755  0.51510171  0.86807856    -0.21000
F1703       F  0.43915575  0.46583781  0.87404574    -0.20700
F1704       F  0.24719687  0.40516055  0.85369893    -0.20700
F1705       F  0.25005186  0.35406290  0.85933775    -0.21000
F1706       F  0.26305571  0.38246185  0.81633982    -0.23700
C1707       C  0.90209027  0.52390223  0.63462315    -0.06600
C1708       C  0.90287599  0.53878274  0.66187800    -0.00600
C1709       C  0.89276123  0.56572454  0.66439699    -0.09200
C1710       C  0.88047345  0.57558650  0.63950399    -0.06600
C1711       C  0.87845926  0.55974038  0.61237491    -0.00600
C1712       C  0.89062600  0.53436689  0.60963349    -0.09100
C1713       C  0.89212706  0.51870956  0.58041010     0.61300
H1714       H  0.91089766  0.50414992  0.63299954     0.12000
H1715       H  0.87125700  0.59499709  0.64122520     0.12000
C1716       C  0.89401755  0.58331016  0.69339481     0.61500
F1717       F  0.91338688  0.50265348  0.58152260    -0.23700
F1718       F  0.90718328  0.54612976  0.55983290    -0.21000
F1719       F  0.85731745  0.49246777  0.57190701    -0.20700
F1720       F  0.92990408  0.60531930  0.70210323    -0.20700
F1721       F  0.87535805  0.55664660  0.71407182    -0.21000
F1722       F  0.87816777  0.60472202  0.69186139    -0.23700
C1723       C  0.86477399  0.52871497  0.84034826    -0.06600
C1724       C  0.89954394  0.53368820  0.84514453    -0.00600
C1725       C  0.91856757  0.55060126  0.87113807    -0.09200
C1726       C  0.90237211  0.56286376  0.89129797    -0.06600
C1727       C  0.86760815  0.55772982  0.88658633    -0.00600
C1728       C  0.84818976  0.54022129  0.86084173    -0.09100
C1729       C  0.81021769  0.53389959  0.85499248     0.61300
H1730       H  0.85080035  0.51591196  0.82028001     0.12000
H1731       H  0.91605193  0.57513819  0.91158556     0.12000
C1732       C  0.95490806  0.55387353  0.87825990     0.61500
F1733       F  0.79811658  0.52039477  0.82731854    -0.23700
F1734       F  0.81058773  0.56643347  0.85767458    -0.21000
F1735       F  0.78558762  0.50897531  0.87457287    -0.20700
F1736       F  0.98081742  0.57637416  0.85844462    -0.20700
F1737       F  0.95132920  0.51974547  0.87723122    -0.21000
F1738       F  0.96727218  0.56836897  0.90564453    -0.23700
C1739       C  0.91708285  0.34211243  0.65131007    -0.06600
C1740       C  0.90619672  0.36793310  0.65585406    -0.00600
C1741       C  0.88501478  0.37253981  0.63454377    -0.09200
C1742       C  0.87294727  0.34884274  0.61067861    -0.06600
C1743       C  0.88133916  0.32097754  0.60723515    -0.00600
C1744       C  0.90545632  0.31875149  0.62716301    -0.09100
C1745       C  0.91899747  0.29219107  0.62340402     0.61300
H1746       H  0.93425139  0.33959825  0.66735672     0.12000
H1747       H  0.85564910  0.35141520  0.59485202     0.12000
C1748       C  0.87521813  0.40220132  0.63654869     0.61500
F1749       F  0.94581230  0.29820558  0.64341389    -0.23700
F1750       F  0.93397308  0.29635299  0.59607285    -0.21000
F1751       F  0.89040958  0.25679316  0.62697515    -0.20700
F1752       F  0.90648920  0.43573850  0.64095479    -0.20700
F1753       F  0.85110150  0.39473944  0.65917759    -0.21000
F1754       F  0.85872751  0.40464695  0.61144339    -0.23700
C1755       C  0.90550192  0.32867022  0.84499322    -0.06600
C1756       C  0.90200839  0.35983618  0.84551332    -0.00600
C1757       C  0.88862922  0.36791960  0.87070548    -0.09200
C1758       C  0.87804260  0.34370289  0.89417596    -0.06600
C1759       C  0.87972002  0.31149111  0.89324900    -0.00600
C1760       C  0.89451252  0.30412759  0.86842391    -0.09100
C1761       C  0.89815873  0.27055270  0.86619287     0.61300
H1762       H  0.91660705  0.32340082  0.82568096     0.12000
H1763       H  0.86727306  0.34942326  0.91346349     0.12000
C1764       C  0.88600177  0.40207600  0.87317630     0.61500
F1765       F  0.91346996  0.26914250  0.84007061    -0.23700
F1766       F  0.86412106  0.23934176  0.86828043    -0.21000
F1767       F  0.92047637  0.27105102  0.88824196    -0.20700
F1768       F  0.86026038  0.40014347  0.85378887    -0.20700
F1769       F  0.91957437  0.43259353  0.86727394    -0.21000
F1770       F  0.87563450  0.40620097  0.90070683    -0.23700
C1771       C  0.10584275  0.44925824  0.61242163    -0.06600
C1772       C  0.11224309  0.42044737  0.61757700    -0.00600
C1773       C  0.10217148  0.40229376  0.64464716    -0.09200
C1774       C  0.08773296  0.41509391  0.66616241    -0.06600
C1775       C  0.08409307  0.44580096  0.66160529    -0.00600
C1776       C  0.09205169  0.46232558  0.63397445    -0.09100
C1777       C  0.08641339  0.49389187  0.62738366     0.61300
H1778       H  0.11347720  0.46274720  0.59156308     0.12000
H1779       H  0.08023017  0.40190442  0.68712882     0.12000
C1780       C  0.10801470  0.37074004  0.65121024     0.61500
F1781       F  0.09282139  0.50407118  0.59849411    -0.23700
F1782       F  0.11034490  0.52344806  0.64402349    -0.21000
F1783       F  0.05086727  0.48436569  0.63380144    -0.20700
F1784       F  0.14464608  0.38194335  0.64856389    -0.20700
F1785       F  0.08789878  0.34249940  0.63198080    -0.21000
F1786       F  0.09711186  0.35755384  0.67907084    -0.23700
C1787       C  0.08153068  0.41309568  0.84278375    -0.06600
C1788       C  0.08639575  0.44845028  0.84373169    -0.00600
C1789       C  0.10498507  0.47118791  0.86770563    -0.09200
C1790       C  0.12026053  0.45873797  0.88860248    -0.06600
C1791       C  0.11799324  0.42456180  0.88653659    -0.00600
C1792       C  0.09712136  0.40070501  0.86368649    -0.09100
C1793       C  0.09223741  0.36302228  0.86065708     0.61300
H1794       H  0.06627819  0.39547951  0.82481872     0.12000
H1795       H  0.13532913  0.47649670  0.90655441     0.12000
C1796       C  0.10831619  0.50818121  0.87168778     0.61500
F1797       F  0.07062682  0.34425857  0.83703115    -0.23700
F1798       F  0.07550720  0.34280575  0.88518417    -0.21000
F1799       F  0.12587657  0.36588209  0.85711900    -0.20700
F1800       F  0.07410551  0.50448170  0.87008104    -0.20700
F1801       F  0.13055330  0.53187060  0.85037735    -0.21000
F1802       F  0.12336530  0.52360743  0.89833589    -0.23700
C1803       C  0.08204084  0.66214564  0.66395319    -0.06600
C1804       C  0.08527173  0.63080921  0.66205834    -0.00600
C1805       C  0.10048988  0.62528281  0.63671430    -0.09200
C1806       C  0.11422642  0.65236628  0.61519496    -0.06600
C1807       C  0.11390222  0.68514805  0.61810829    -0.00600
C1808       C  0.09621021  0.68959681  0.64241908    -0.09100
C1809       C  0.09313643  0.72331737  0.64610438     0.61300
H1810       H  0.06917943  0.66552297  0.68300474     0.12000
H1811       H  0.12691222  0.64866245  0.59616430     0.12000
C1812       C  0.10247222  0.59111047  0.63232110     0.61500
F1813       F  0.07437107  0.72179910  0.67109071    -0.23700
F1814       F  0.07447261  0.72641615  0.62273715    -0.21000
F1815       F  0.12761501  0.75401666  0.64775150    -0.20700
F1816       F  0.06828488  0.56060732  0.63640361    -0.20700
F1817       F  0.12698875  0.59106730  0.65197226    -0.21000
F1818       F  0.11409124  0.58910403  0.60468388    -0.23700
C1819       C  0.14681812  0.68626875  0.86014720    -0.06600
C1820       C  0.12489625  0.69329416  0.87878050    -0.00600
C1821       C  0.08664848  0.67078938  0.87762478    -0.09200
C1822       C  0.07165870  0.64183461  0.85755816    -0.06600
C1823       C  0.09367545  0.63371900  0.83985534    -0.00600
C1824       C  0.13211114  0.65625760  0.84130137    -0.09100
C1825       C  0.15782040  0.64907963  0.82341933     0.61300
H1826       H  0.17616750  0.70386478  0.86145784     0.12000
H1827       H  0.04259708  0.62510530  0.85581436     0.12000
C1828       C  0.06195216  0.67660121  0.89784621     0.61500
F1829       F  0.19409992  0.67545550  0.82783669    -0.23700
F1830       F  0.15034528  0.64891492  0.79419940    -0.21000
F1831       F  0.15366865  0.61581961  0.83120545    -0.20700
F1832       F  0.06550116  0.71010017  0.89216693    -0.20700
F1833       F  0.07151464  0.67567156  0.92639190    -0.21000
F1834       F  0.02557475  0.64998385  0.89434697    -0.23700
C1835       C  0.32136201  0.85861693  0.64267009    -0.06600
C1836       C  0.30959124  0.87896781  0.62681427    -0.00600
C1837       C  0.32599135  0.91675550  0.63199457    -0.09200
C1838       C  0.35546317  0.93322275  0.65164932    -0.06600
C1839       C  0.36843837  0.91302796  0.66645781    -0.00600
C1840       C  0.35040179  0.87470419  0.66241501    -0.09100
C1841       C  0.36083603  0.85031706  0.67882941     0.61300
H1842       H  0.30777670  0.82946722  0.63903357     0.12000
H1843       H  0.36885215  0.96233319  0.65542186     0.12000
C1844       C  0.31293348  0.93957357  0.61673301     0.61500
F1845       F  0.33749275  0.81368573  0.67278980    -0.23700
F1846       F  0.35928083  0.85499242  0.70839467    -0.21000
F1847       F  0.39567309  0.85872557  0.67107688    -0.20700
F1848       F  0.27689962  0.92696818  0.62399524    -0.20700
F1849       F  0.31578183  0.93729803  0.58701166    -0.21000
F1850       F  0.33324855  0.97596507  0.62466318    -0.23700
C1851       C  0.35207543  0.89965696  0.89084972    -0.06600
C1852       C  0.31565279  0.88831784  0.88386056    -0.00600
C1853       C  0.30643058  0.89115325  0.85487935    -0.09200
C1854       C  0.33445200  0.90616351  0.83392807    -0.06600
C1855       C  0.37052589  0.91590548  0.84076755    -0.00600
C1856       C  0.37958706  0.91274436  0.86964866    -0.09100
C1857       C  0.41779924  0.92181705  0.87768569     0.61300
H1858       H  0.35839845  0.89617681  0.91297048     0.12000
H1859       H  0.32819442  0.90932489  0.81170997     0.12000
C1860       C  0.26703616  0.87641889  0.84587959     0.61500
F1861       F  0.42163240  0.91876911  0.90720084    -0.23700
F1862       F  0.44294623  0.95711843  0.86944705    -0.21000
F1863       F  0.42517328  0.89775733  0.86351215    -0.20700
F1864       F  0.25308041  0.89498355  0.86052530    -0.20700
F1865       F  0.24640836  0.83964469  0.85241807    -0.21000
F1866       F  0.26383919  0.88034490  0.81639784    -0.23700
C1867       C  0.54874633  0.89150514  0.61552903    -0.06600
C1868       C  0.58123441  0.89077026  0.61964298    -0.00600
C1869       C  0.60259056  0.90735961  0.64470823    -0.09200
C1870       C  0.58988170  0.92302904  0.66515505    -0.06600
C1871       C  0.55608973  0.92132917  0.66189213    -0.00600
C1872       C  0.53545922  0.90598765  0.63637443    -0.09100
C1873       C  0.49966226  0.90488622  0.63107721     0.61300
H1874       H  0.53280015  0.87906587  0.59613900     0.12000
H1875       H  0.60566797  0.93552708  0.68460386     0.12000
C1876       C  0.63735000  0.90677791  0.65074206     0.61500
F1877       F  0.48632548  0.89285540  0.60338134    -0.23700
F1878       F  0.50465559  0.93942934  0.63437151    -0.21000
F1879       F  0.47370302  0.88136666  0.65061697    -0.20700
F1880       F  0.66220836  0.92442462  0.62867972    -0.20700
F1881       F  0.62944704  0.87106012  0.65257093    -0.21000
F1882       F  0.65359823  0.92412523  0.67657252    -0.23700
C1883       C  0.58730095  0.91603545  0.83772263    -0.06600
C1884       C  0.55415156  0.91571008  0.84060636    -0.00600
C1885       C  0.53284132  0.90023744  0.86578415    -0.09200
C1886       C  0.54510418  0.88517074  0.88693068    -0.06600
C1887       C  0.57741190  0.88403724  0.88364129    -0.00600
C1888       C  0.59902344  0.89976951  0.85854654    -0.09100
C1889       C  0.63328148  0.89809168  0.85308805     0.61300
H1890       H  0.60353380  0.92830395  0.81847828     0.12000
H1891       H  0.52865305  0.87295238  0.90609184     0.12000
C1892       C  0.49725074  0.89951395  0.87043758     0.61500
F1893       F  0.64879771  0.91287687  0.82646988    -0.23700
F1894       F  0.62494270  0.86216526  0.85336093    -0.21000
F1895       F  0.65882417  0.91748836  0.87440521    -0.20700
F1896       F  0.47197046  0.87657704  0.85015356    -0.20700
F1897       F  0.50288544  0.93434964  0.86759229    -0.21000
F1898       F  0.48288409  0.88685411  0.89774608    -0.23700
C1899       C  0.64982051  0.08668394  0.64283381    -0.06600
C1900       C  0.64446030  0.11017342  0.66108304    -0.00600
C1901       C  0.66497401  0.14831703  0.65604003    -0.09200
C1902       C  0.68883838  0.16120614  0.63218252    -0.06600
C1903       C  0.69400043  0.13771834  0.61397286    -0.00600
C1904       C  0.67452231  0.09984130  0.61942250    -0.09100
C1905       C  0.67917176  0.07349746  0.60024072     0.61300
H1906       H  0.63439650  0.05762517  0.64708562     0.12000
H1907       H  0.70419581  0.19021227  0.62767641     0.12000
C1908       C  0.66317773  0.17561998  0.67620747     0.61500
F1909       F  0.65578046  0.03754121  0.60809291    -0.23700
F1910       F  0.71456670  0.08043743  0.60250145    -0.21000
F1911       F  0.67196838  0.07762196  0.57166546    -0.20700
F1912       F  0.67009350  0.16976769  0.70442062    -0.20700
F1913       F  0.62902846  0.17197729  0.67458478    -0.21000
F1914       F  0.68876795  0.21127765  0.66906002    -0.23700
C1915       C  0.70117488  0.15173329  0.86804893    -0.06600
C1916       C  0.70026121  0.12717741  0.88882336    -0.00600
C1917       C  0.67322699  0.08995900  0.88715192    -0.09200
C1918       C  0.64705135  0.07862857  0.86485980    -0.06600
C1919       C  0.64695433  0.10356264  0.84485368    -0.00600
C1920       C  0.67492768  0.14063181  0.84595945    -0.09100
C1921       C  0.67755610  0.16824250  0.82381279     0.61300
H1922       H  0.72210049  0.18027290  0.86999803     0.12000
H1923       H  0.62601102  0.05011470  0.86310479     0.12000
C1924       C  0.67163081  0.06284096  0.90922980     0.61500
F1925       F  0.70871188  0.20205859  0.82769642    -0.23700
F1926       F  0.64766516  0.17267266  0.82637936    -0.21000
F1927       F  0.67862549  0.15630040  0.79610110    -0.20700
F1928       F  0.66756918  0.07313387  0.93680250    -0.20700
F1929       F  0.70365335  0.06196232  0.90805835    -0.21000
F1930       F  0.64268170  0.02794101  0.90401579    -0.23700
C1931       C  0.43633815  0.10744264  0.66295811    -0.06600
C1932       C  0.47152790  0.11197457  0.66385805    -0.00600
C1933       C  0.49650156  0.13187313  0.64142117    -0.09200
C1934       C  0.48476888  0.14509688  0.61833443    -0.06600
C1935       C  0.44961528  0.14078571  0.61731980    -0.00600
C1936       C  0.42522724  0.12243960  0.64061059    -0.09100
C1937       C  0.38844576  0.12002563  0.64283466     0.61300
H1938       H  0.41768503  0.09261332  0.68048115     0.12000
H1939       H  0.50359488  0.15958697  0.60084344     0.12000
C1940       C  0.53530532  0.13895642  0.64154019     0.61500
F1941       F  0.37058470  0.10365986  0.66840977    -0.23700
F1942       F  0.36622325  0.09960525  0.62006931    -0.21000
F1943       F  0.39338259  0.15474961  0.64217951    -0.20700
F1944       F  0.53481193  0.10625831  0.64303208    -0.20700
F1945       F  0.55421083  0.16066831  0.66500278    -0.21000
F1946       F  0.55425512  0.15702498  0.61689477    -0.23700
C1947       C  0.43592489  0.10505110  0.84371972    -0.06600
C1948       C  0.46596162  0.10021190  0.84766317    -0.00600
C1949       C  0.48210035  0.10568528  0.87538074    -0.09200
C1950       C  0.46843039  0.11740347  0.89811034    -0.06600
C1951       C  0.43947978  0.12397351  0.89389951    -0.00600
C1952       C  0.42268958  0.11750791  0.86628153    -0.09100
C1953       C  0.39236175  0.12547460  0.86016428     0.61300
H1954       H  0.42346933  0.09985326  0.82243636     0.12000
H1955       H  0.48125559  0.12289491  0.91927137     0.12000
C1956       C  0.51344908  0.09909746  0.88094655     0.61500
F1957       F  0.38128926  0.11898923  0.83143887    -0.23700
F1958       F  0.40439271  0.16171724  0.86614793    -0.21000
F1959       F  0.36239216  0.10342847  0.87725241    -0.20700
F1960       F  0.54411481  0.12476269  0.86616351    -0.20700
F1961       F  0.50417198  0.06454360  0.87158351    -0.21000
F1962       F  0.52205591  0.10166266  0.91015083    -0.23700
loop_ 
_geom_bond_atom_site_label_1 
_geom_bond_atom_site_label_2 
_geom_bond_distance 
_geom_bond_site_symmetry_2 
_ccdc_geom_bond_type 
N1            N2   1.328       .  A
N1            N7   1.316       .  A
N1          Mn30   2.247       .  S
N2            C9   1.362       .  A
N3            N5   1.315       .  A
N3            N4   1.319       .  A
N3          Mn19   2.183       .  S
N4           C10   1.350       .  A
N5            N6   1.323       .  A
N5          Mn30   2.228       .  S
N6           C10   1.358       .  A
N7            N8   1.315       .  A
N7          Mn19   2.171       .  S
N8            C9   1.343       .  A
C9          C874   1.478       .  S
C10         C858   1.490       .  S
N11          N17   1.314       .  A
N11          N12   1.321       .  A
N11         Mn41   2.220       .  S
N12          C20   1.357       .  A
N13          N14   1.316       .  A
N13          N15   1.315       .  A
N13         Mn19   2.176   1_545  S
N14          C21   1.347       .  A
N15          N16   1.327       .  A
N15         Mn41   2.240       .  S
N16          C21   1.362       .  A
N17          N18   1.319       .  A
N17         Mn19   2.181   1_545  S
N18          C20   1.352       .  A
Mn19        Cl43   2.528       .  S
C20         C951   1.496       .  S
C21         C967   1.490       .  S
N22          N23   1.326       .  A
N22          N28   1.314       .  A
N22         Mn30   2.242       .  S
N23          C31   1.362       .  A
N24          N26   1.316       .  A
N24          N25   1.318       .  A
N24         Mn42   2.181       .  S
N25          C32   1.348       .  A
N26          N27   1.326       .  A
N26         Mn30   2.238       .  S
N27          C32   1.361       .  A
N28          N29   1.316       .  A
N28         Mn42   2.174       .  S
N29          C31   1.349       .  A
Mn30        Cl43   2.569       .  S
C31         C890   1.502       .  S
C32         C903   1.488       .  S
N33          N34   1.321       .  A
N33          N39   1.316       .  A
N33         Mn41   2.212       .  S
N34          C44   1.355       .  A
N35          N36   1.317       .  A
N35          N37   1.316       .  A
N35         Mn42   2.180   1_545  S
N36          C45   1.348       .  A
N37          N38   1.323       .  A
N37         Mn41   2.222       .  S
N38          C45   1.357       .  A
N39          N40   1.316       .  A
N39         Mn42   2.173   1_545  S
N40          C44   1.347       .  A
Mn41        Cl43   2.566   1_545  S
Mn42        Cl43   2.526       .  S
C44         C938   1.475       .  S
C45         C919   1.479       .  S
N46          N47   1.326       .  A
N46          N52   1.315       .  A
N46         Mn75   2.241       .  S
N47          C54   1.361       .  A
N48          N50   1.314       .  A
N48          N49   1.317       .  A
N48         Mn64   2.168   1_655  S
N49          C55   1.346       .  A
N50          N51   1.325       .  A
N50         Mn75   2.239       .  S
N51          C55   1.362       .  A
N52          N53   1.317       .  A
N52         Mn64   2.174   1_655  S
N53          C54   1.347       .  A
C54         C743   1.486       .  S
C55         C727   1.486       .  S
N56          N62   1.315       .  A
N56          N57   1.323       .  A
N56         Mn86   2.217       .  S
N57          C65   1.357       .  A
N58          N59   1.313       .  A
N58          N60   1.315       .  A
N58         Mn64   2.154       .  S
N59          C66   1.343       .  A
N60          N61   1.325       .  A
N60         Mn86   2.238       .  S
N61          C66   1.362       .  A
N62          N63   1.313       .  A
N62         Mn64   2.167       .  S
N63          C65   1.345       .  A
Mn64        Cl88   2.522       .  S
C65         C823   1.474       .  S
C66         C842   1.484       .  S
N67          N68   1.322       .  A
N67          N73   1.315       .  A
N67         Mn75   2.223       .  S
N68          C76   1.358       .  A
N69          N71   1.316       .  A
N69          N70   1.316       .  A
N69         Mn87   2.171   1_655  S
N70          C77   1.345       .  A
N71          N72   1.325       .  A
N71         Mn75   2.238       .  S
N72          C77   1.361       .  A
N73          N74   1.316       .  A
N73         Mn87   2.175   1_655  S
N74          C76   1.350       .  A
Mn75        Cl88   2.569   1_655  S
C76         C759   1.494       .  S
C77         C775   1.483       .  S
N78          N79   1.324       .  A
N78          N84   1.314       .  A
N78         Mn86   2.226       .  S
N79          C89   1.360       .  A
N80          N81   1.317       .  A
N80          N82   1.315       .  A
N80         Mn87   2.182       .  S
N81          C90   1.347       .  A
N82          N83   1.327       .  A
N82         Mn86   2.239       .  S
N83          C90   1.362       .  A
N84          N85   1.316       .  A
N84         Mn87   2.174       .  S
N85          C89   1.348       .  A
Mn86        Cl88   2.574       .  S
Mn87        Cl88   2.519       .  S
C89         C807   1.489       .  S
C90         C794   1.491       .  S
N91          N92   1.326       .  A
N91          N97   1.316       .  A
N91        Mn120   2.244       .  S
N92          C99   1.362       .  A
N93          N95   1.314       .  A
N93          N94   1.318       .  A
N93        Mn109   2.177       .  S
N94         C100   1.350       .  A
N95          N96   1.320       .  A
N95        Mn120   2.220       .  S
N96         C100   1.356       .  A
N97          N98   1.315       .  A
N97        Mn109   2.162       .  S
N98          C99   1.343       .  A
C99         C615   1.482       .  S
C100        C599   1.489       .  S
N101        N107   1.315       .  A
N101        N102   1.326       .  A
N101       Mn131   2.235       .  S
N102        C110   1.361       .  A
N103        N104   1.315       .  A
N103        N105   1.314       .  A
N103       Mn109   2.172       .  S
N104        C111   1.345       .  A
N105        N106   1.324       .  A
N105       Mn131   2.221       .  S
N106        C111   1.358       .  A
N107        N108   1.314       .  A
N107       Mn109   2.164       .  S
N108        C110   1.344       .  A
Mn109      Cl133   2.521       .  S
C110        C695   1.475       .  S
C111        C714   1.474       .  S
N112        N113   1.324       .  A
N112        N118   1.315       .  A
N112       Mn120   2.234       .  S
N113        C121   1.360       .  A
N114        N116   1.315       .  A
N114        N115   1.315       .  A
N114       Mn132   2.168       .  S
N115        C122   1.344       .  A
N116        N117   1.326       .  A
N116       Mn120   2.234       .  S
N117        C122   1.360       .  A
N118        N119   1.316       .  A
N118       Mn132   2.172       .  S
N119        C121   1.347       .  A
Mn120      Cl133   2.567       .  S
C121        C634   1.482       .  S
C122        C647   1.480       .  S
N123        N124   1.325       .  A
N123        N129   1.314       .  A
N123       Mn131   2.230       .  S
N124        C134   1.360       .  A
N125        N126   1.315       .  A
N125        N127   1.314       .  A
N125       Mn132   2.168       .  S
N126        C135   1.347       .  A
N127        N128   1.323       .  A
N127       Mn131   2.223       .  S
N128        C135   1.359       .  A
N129        N130   1.314       .  A
N129       Mn132   2.166       .  S
N130        C134   1.346       .  A
Mn131      Cl133   2.571       .  S
Mn132      Cl133   2.519       .  S
C134        C679   1.484       .  S
C135        C666   1.485       .  S
N136        N137   1.332       .  A
N136        N142   1.313       .  A
N136       Mn165   2.258       .  S
N137        C144   1.367       .  A
N138        N140   1.313       .  A
N138        N139   1.310       .  A
N138       Mn154   2.147       .  S
N139        C145   1.341       .  A
N140        N141   1.329       .  A
N140       Mn165   2.243       .  S
N141        C145   1.363       .  A
N142        N143   1.311       .  A
N142       Mn154   2.148       .  S
N143        C144   1.342       .  A
C144        C746   1.489       .  S
C145        C650   1.475       .  S
N146        N147   1.314       .  A
N146       N1133   1.307   1_554  A
N146       Mn176   2.165       .  S
N147        C155   1.352       .  A
N148        N149   1.311       .  A
N148       N1131   1.308       .  A
N148       Mn154   2.153       .  S
N149       C1137   1.343       .  A
N150        N151   1.316       .  A
N150       N1129   1.310   1_554  A
N150       Mn176   2.182       .  S
N151        C156   1.353       .  A
N152        N153   1.313       .  A
N152       N1127   1.309       .  A
N152       Mn154   2.163       .  S
N153       C1136   1.346       .  A
Mn154     Cl1159   2.509       .  S
C155       N1134   1.353   1_554  A
C155        C583   1.474       .  S
C156       N1130   1.354   1_554  A
C156        C567   1.479       .  S
N157        N158   1.324       .  A
N157       N1144   1.320       .  A
N157       Mn165   2.235       .  S
N158       C1147   1.358       .  A
N159        N160   1.323       .  A
N159       N1142   1.320   1_554  A
N159       Mn177   2.226       .  S
N160       C1148   1.355       .  A
N161        N162   1.321       .  A
N161       N1140   1.318       .  A
N161       Mn165   2.218       .  S
N162        C167   1.357       .  A
N163        N164   1.324       .  A
N163       N1138   1.318   1_554  A
N163       Mn177   2.234       .  S
N164        C166   1.357       .  A
Mn165     Cl1159   2.567       .  S
C166       N1139   1.360   1_554  A
C166        C554   1.519       .  S
C167       N1141   1.352       .  A
C167       C1519   1.496       .  S
N168        N169   1.310       .  A
N168        N174   1.313       .  A
N168       Mn176   2.149       .  S
N169        C179   1.341       .  A
N170        N171   1.328       .  A
N170        N172   1.313       .  A
N170       Mn177   2.242       .  S
N171        C180   1.364       .  A
N172        N173   1.312       .  A
N172       Mn176   2.158       .  S
N173        C180   1.345       .  A
N174        N175   1.330       .  A
N174       Mn177   2.253       .  S
N175        C179   1.367       .  A
Mn176      Cl178   2.525       .  S
Mn177      Cl178   2.556       .  S
Cl178     Mn1135   2.535   1_554  S
Cl178     Mn1146   2.555   1_554  S
C179        C730   1.490       .  S
C180        C631   1.488       .  S
N181        N182   1.326       .  A
N181        N187   1.314       .  A
N181       Mn210   2.224       .  S
N182        C189   1.360       .  A
N183        N185   1.315       .  A
N183        N184   1.309       .  A
N183       Mn199   2.144       .  S
N184        C190   1.339       .  A
N185        N186   1.332       .  A
N185       Mn210   2.258       .  S
N186        C190   1.366       .  A
N187        N188   1.308       .  A
N187       Mn199   2.148       .  S
N188        C189   1.342       .  A
C189        C935   1.469       .  S
C190        C778   1.480       .  S
N191        N192   1.312       .  A
N191       N1178   1.307   1_554  A
N191       Mn221   2.168       .  S
N192        C200   1.347       .  A
N193        N194   1.315       .  A
N193       N1176   1.307       .  A
N193       Mn199   2.165       .  S
N194       C1182   1.349       .  A
N195        N196   1.319       .  A
N195       N1174   1.307   1_554  A
N195       Mn221   2.176       .  S
N196        C201   1.356       .  A
N197        N198   1.316       .  A
N197       N1172   1.308       .  A
N197       Mn199   2.169       .  S
N198       C1181   1.352       .  A
Mn199     Cl1204   2.515       .  S
C200       N1179   1.358   1_554  A
C200        C570   1.484       .  S
C201       N1175   1.349   1_554  A
C201        C522   1.481       .  S
N202        N203   1.322       .  A
N202       N1189   1.318       .  A
N202       Mn210   2.222       .  S
N203       C1192   1.357       .  A
N204        N205   1.323       .  A
N204       N1187   1.320   1_554  A
N204       Mn222   2.227       .  S
N205        C212   1.355       .  A
N206        N207   1.325       .  A
N206       N1185   1.319       .  A
N206       Mn210   2.235       .  S
N207       C1193   1.357       .  A
N208        N209   1.323       .  A
N208       N1183   1.319   1_554  A
N208       Mn222   2.223       .  S
N209        C211   1.355       .  A
Mn210     Cl1204   2.559       .  S
C211       N1184   1.355   1_554  A
C211        C503   1.496       .  S
C212       N1188   1.357   1_554  A
C212        C487   1.499       .  S
N213        N214   1.311       .  A
N213        N219   1.315       .  A
N213       Mn221   2.151       .  S
N214        C224   1.341       .  A
N215        N216   1.330       .  A
N215        N217   1.313       .  A
N215       Mn222   2.245       .  S
N216        C225   1.366       .  A
N217        N218   1.308       .  A
N217       Mn221   2.148       .  S
N218        C225   1.342       .  A
N219        N220   1.327       .  A
N219       Mn222   2.233       .  S
N220        C224   1.360       .  A
Mn221      Cl223   2.522       .  S
Mn222      Cl223   2.559       .  S
Cl223     Mn1180   2.525   1_554  S
Cl223     Mn1191   2.556   1_554  S
C224        C922   1.469       .  S
C225        C762   1.494       .  S
N226        N227   1.327       .  A
N226        N232   1.315       .  A
N226       Mn255   2.234       .  S
N227        C234   1.360       .  A
N228        N230   1.314       .  A
N228        N229   1.308       .  A
N228       Mn244   2.149       .  S
N229        C235   1.341       .  A
N230        N231   1.330       .  A
N230       Mn255   2.239       .  S
N231        C235   1.364       .  A
N232        N233   1.313       .  A
N232       Mn244   2.162       .  S
N233        C234   1.343       .  A
C234        C871   1.472       .  S
C235        C839   1.478       .  S
N236        N237   1.318       .  A
N236       N1223   1.308   1_554  A
N236       Mn266   2.184       .  S
N237        C245   1.356   1_554  A
N238        N239   1.316       .  A
N238       N1221   1.308       .  A
N238       Mn244   2.167       .  S
N239       C1227   1.351       .  A
N240        N241   1.317       .  A
N240       N1219   1.308   1_554  A
N240       Mn266   2.183       .  S
N241        C246   1.356   1_554  A
N242        N243   1.318       .  A
N242       N1217   1.307       .  A
N242       Mn244   2.169       .  S
N243       C1226   1.352       .  A
Mn244     Cl1249   2.527       .  S
C245       N1224   1.349       .  A
C245        C455   1.481       .  S
C246       N1220   1.349       .  A
C246        C474   1.481       .  S
N247        N248   1.321       .  A
N247       N1234   1.318       .  A
N247       Mn255   2.217       .  S
N248       C1237   1.354       .  A
N249        N250   1.326       .  A
N249       N1232   1.319   1_554  A
N249       Mn267   2.233       .  S
N250        C257   1.359       .  A
N251        N252   1.319       .  A
N251       N1230   1.320       .  A
N251       Mn255   2.219       .  S
N252       C1238   1.352       .  A
N253        N254   1.325       .  A
N253       N1228   1.318   1_554  A
N253       Mn267   2.235       .  S
N254        C256   1.359   1_554  A
Mn255     Cl1249   2.550       .  S
C256       N1229   1.356       .  A
C256        C535   1.511       .  S
C257       N1233   1.354   1_554  A
C257        C439   1.504       .  S
N258        N259   1.313       .  A
N258        N264   1.316       .  A
N258       Mn266   2.163       .  S
N259        C269   1.344       .  A
N260        N261   1.323       .  A
N260        N262   1.315       .  A
N260       Mn267   2.225       .  S
N261        C270   1.359       .  A
N262        N263   1.312       .  A
N262       Mn266   2.160       .  S
N263        C270   1.345       .  A
N264        N265   1.327       .  A
N264       Mn267   2.241       .  S
N265        C269   1.361       .  A
Mn266      Cl268   2.535   1_554  S
Mn267      Cl268   2.548   1_554  S
Cl268     Mn1225   2.513       .  S
Cl268     Mn1236   2.565       .  S
C269        C855   1.480       .  S
C270        C826   1.482       .  S
N271        N272   1.317       .  A
N271       N1258   1.308   1_554  A
N271       Mn300   2.171       .  S
N272        C279   1.350   1_554  A
N273        N274   1.318       .  A
N273       N1256   1.309       .  A
N273       Mn289   2.192       .  S
N274       C1261   1.357       .  A
N275        N276   1.315       .  A
N275       N1254   1.308   1_554  A
N275       Mn300   2.169       .  S
N276        C280   1.350   1_554  A
N277        N278   1.319       .  A
N277       N1252   1.309       .  A
N277       Mn289   2.183       .  S
N278       C1260   1.356       .  A
C279       N1259   1.355       .  A
C279        C471   1.481       .  S
C280       N1255   1.355       .  A
C280        C426   1.479       .  S
N281        N287   1.314       .  A
N281        N282   1.327       .  A
N281       Mn311   2.237       .  S
N282        C290   1.363       .  A
N283        N284   1.316       .  A
N283        N285   1.316       .  A
N283       Mn289   2.179       .  S
N284        C291   1.348       .  A
N285        N286   1.327       .  A
N285       Mn311   2.244       .  S
N286        C291   1.362       .  A
N287        N288   1.311       .  A
N287       Mn289   2.163       .  S
N288        C290   1.346       .  A
Mn289     Cl1294   2.542       .  S
C290        C682   1.493       .  S
C291        C906   1.494       .  S
N292        N293   1.311       .  A
N292        N298   1.315       .  A
N292       Mn300   2.156       .  S
N293        C301   1.342       .  A
N294        N296   1.315       .  A
N294        N295   1.331       .  A
N294       Mn312   2.260       .  S
N295        C302   1.367       .  A
N296        N297   1.311       .  A
N296       Mn300   2.158       .  S
N297        C302   1.344       .  A
N298        N299   1.328       .  A
N298       Mn312   2.235       .  S
N299        C301   1.362       .  A
Mn300      Cl313   2.524   1_554  S
C301        C663   1.478       .  S
C302        C887   1.499       .  S
N303        N304   1.324       .  A
N303       N1290   1.320       .  A
N303       Mn311   2.232       .  S
N304        C314   1.356       .  A
N305        N306   1.327       .  A
N305       N1288   1.321   1_554  A
N305       Mn312   2.248       .  S
N306        C315   1.361   1_554  A
N307        N308   1.323       .  A
N307       N1286   1.319       .  A
N307       Mn311   2.235       .  S
N308       C1296   1.356       .  A
N309        N310   1.324       .  A
N309       N1284   1.320   1_554  A
N309       Mn312   2.226       .  S
N310       C1295   1.357       .  A
Mn311     Cl1294   2.548       .  S
Mn312      Cl313   2.567   1_554  S
Cl313     Mn1270   2.533       .  S
Cl313     Mn1292   2.557       .  S
C314       N1291   1.356       .  A
C314        C490   1.502       .  S
C315       N1289   1.356       .  A
C315        C551   1.517       .  S
N316        N317   1.329       .  A
N316        N322   1.314       .  A
N316       Mn345   2.248       .  S
N317        C324   1.365       .  A
N318        N320   1.315       .  A
N318        N319   1.312       .  A
N318       Mn334   2.160       .  S
N319        C325   1.341       .  A
N320        N321   1.327       .  A
N320       Mn345   2.237       .  S
N321        C325   1.361       .  A
N322        N323   1.311       .  A
N322       Mn334   2.162       .  S
N323        C324   1.346       .  A
C324        C810   1.498       .  S
C325        C711   1.472       .  S
N326        N327   1.319       .  A
N326       N1313   1.309   1_554  A
N326       Mn356   2.189       .  S
N327        C335   1.357   1_554  A
N328        N329   1.320       .  A
N328       N1311   1.308       .  A
N328       Mn334   2.181       .  S
N329       C1317   1.356       .  A
N330        N331   1.316       .  A
N330       N1309   1.309   1_554  A
N330       Mn356   2.174       .  S
N331        C336   1.351   1_554  A
N332        N333   1.316       .  A
N332       N1307   1.308       .  A
N332       Mn334   2.172       .  S
N333       C1316   1.351       .  A
Mn334     Cl1339   2.531       .  S
C335       N1314   1.348       .  A
C335        C423   1.483       .  S
C336       N1310   1.352       .  A
C336        C458   1.475       .  S
N337        N338   1.326       .  A
N337       N1324   1.319       .  A
N337       Mn345   2.238       .  S
N338       C1327   1.360       .  A
N339        N340   1.323       .  A
N339       N1322   1.320   1_554  A
N339       Mn357   2.222       .  S
N340       C1328   1.355       .  A
N341        N342   1.323       .  A
N341       N1320   1.319       .  A
N341       Mn345   2.229       .  S
N342        C347   1.356       .  A
N343        N344   1.324       .  A
N343       N1318   1.320   1_554  A
N343       Mn357   2.229       .  S
N344        C346   1.355       .  A
Mn345     Cl1339   2.558       .  S
C346       N1319   1.362   1_554  A
C346        C410   1.518       .  S
C347       N1321   1.355       .  A
C347       C1487   1.502       .  S
N348        N349   1.315       .  A
N348        N354   1.316       .  A
N348       Mn356   2.175       .  S
N349        C359   1.344       .  A
N350        N351   1.326       .  A
N350        N352   1.315       .  A
N350       Mn357   2.230       .  S
N351        C360   1.361       .  A
N352        N353   1.313       .  A
N352       Mn356   2.165       .  S
N353        C360   1.346       .  A
N354        N355   1.329       .  A
N354       Mn357   2.250       .  S
N355        C359   1.363       .  A
Mn356      Cl358   2.537   1_554  S
Mn357      Cl358   2.555   1_554  S
Cl358     Mn1315   2.522       .  S
Cl358     Mn1326   2.565       .  S
C359        C791   1.486       .  S
C360        C698   1.483       .  S
N361        N362   1.317       .  A
N361       N1348   1.307   1_554  A
N361       Mn390   2.172       .  S
N362        C369   1.351       .  A
N363        N364   1.319       .  A
N363       N1346   1.309       .  A
N363       Mn379   2.184       .  S
N364       C1351   1.354       .  A
N365        N366   1.312       .  A
N365       N1344   1.308   1_554  A
N365       Mn390   2.156       .  S
N366        C370   1.346       .  A
N367        N368   1.314       .  A
N367       N1342   1.309       .  A
N367       Mn379   2.166       .  S
N368       C1350   1.351       .  A
C369       N1349   1.354   1_554  A
C369        C519   1.480       .  S
C370       N1345   1.357   1_554  A
C370        C586   1.478       .  S
N371        N377   1.314       .  A
N371        N372   1.331       .  A
N371       Mn401   2.250       .  S
N372        C380   1.366       .  A
N373        N374   1.312       .  A
N373        N375   1.314       .  A
N373       Mn379   2.161       .  S
N374        C381   1.344       .  A
N375        N376   1.330       .  A
N375       Mn401   2.255       .  S
N376        C381   1.366       .  A
N377        N378   1.308       .  A
N377       Mn379   2.144       .  S
N378        C380   1.341       .  A
Mn379     Cl1384   2.526       .  S
C380        C618   1.484       .  S
C381        C970   1.493       .  S
N382        N383   1.310       .  A
N382        N388   1.314       .  A
N382       Mn390   2.159       .  S
N383        C391   1.344       .  A
N384        N386   1.313       .  A
N384        N385   1.332       .  A
N384       Mn402   2.262       .  S
N385        C392   1.368       .  A
N386        N387   1.308       .  A
N386       Mn390   2.140       .  S
N387        C392   1.341       .  A
N388        N389   1.329       .  A
N388       Mn402   2.233       .  S
N389        C391   1.362       .  A
Mn390      Cl403   2.515       .  S
C391        C602   1.484       .  S
C392        C954   1.494       .  S
N393        N394   1.323       .  A
N393       N1380   1.319       .  A
N393       Mn401   2.237       .  S
N394        C404   1.359       .  A
N395        N396   1.329       .  A
N395       N1378   1.319   1_554  A
N395       Mn402   2.252       .  S
N396        C405   1.363       .  A
N397        N398   1.325       .  A
N397       N1376   1.318       .  A
N397       Mn401   2.233       .  S
N398       C1386   1.357       .  A
N399        N400   1.323       .  A
N399       N1374   1.319   1_554  A
N399       Mn402   2.220       .  S
N400       C1385   1.354       .  A
Mn401     Cl1384   2.560       .  S
Mn402      Cl403   2.567       .  S
Cl403     Mn1360   2.537   1_554  S
Cl403     Mn1382   2.548   1_554  S
C404       N1381   1.353       .  A
C404       C1423   1.504       .  S
C405       N1379   1.353   1_554  A
C405        C407   1.518       .  S
C406        C407   1.409       .  A
C406        C411   1.420       .  A
C406        H413   1.082       .  S
C407        C408   1.430   1_554  A
C408        C409   1.415       .  A
C408        C415   1.522       .  S
C409        C410   1.406   1_556  A
C409        H414   1.082       .  S
C410        C411   1.429       .  A
C411        C412   1.521       .  S
C412        F416   1.385       .  S
C412        F417   1.383       .  S
C412       F1399   1.383       .  S
C415        F419   1.383       .  S
C415       F1401   1.383       .  S
C415       F1402   1.385       .  S
F418       C1393   1.383       .  S
F420       C1396   1.383       .  S
F421       C1396   1.385       .  S
C422        C423   1.404   1_554  A
C422        C427   1.402       .  A
C422        H429   1.085       .  S
C423        C424   1.425       .  A
C424        C425   1.402       .  A
C424        C431   1.522       .  S
C425        C426   1.402       .  A
C425        H430   1.084       .  S
C426        C427   1.417   1_556  A
C427        C428   1.518       .  S
C428        F432   1.382       .  S
C428        F434   1.384       .  S
C428       F1414   1.383       .  S
C431        F436   1.383       .  S
C431        F437   1.385       .  S
C431       F1416   1.383       .  S
F433       C1409   1.383       .  S
F435       C1412   1.383       .  S
C438        C439   1.407       .  A
C438        C443   1.416   1_565  A
C438        H445   1.082       .  S
C439       C1421   1.424   1_554  A
C440        C441   1.409   1_565  A
C440       C1420   1.424       .  A
C440        C447   1.521       .  S
C441       C1423   1.404       .  A
C441        H446   1.082       .  S
C442       C1385   1.506       .  S
C442        C443   1.426       .  A
C442       C1422   1.406   1_554  A
C443        C444   1.520       .  S
C444        F450   1.382       .  S
C444       F1429   1.385       .  S
C444       F1430   1.383       .  S
C447        F451   1.384       .  S
C447       F1433   1.383       .  S
C447       F1434   1.385       .  S
F448       C1425   1.384       .  S
F449       C1425   1.383       .  S
F452       C1428   1.384       .  S
F453       C1428   1.385       .  S
C454        C455   1.405   1_554  A
C454        C459   1.402       .  A
C454        H461   1.083       .  S
C455       C1437   1.424       .  A
C456        C457   1.404       .  A
C456       C1436   1.416       .  A
C456        C463   1.518       .  S
C457       C1439   1.407       .  A
C457        H462   1.083       .  S
C458        C459   1.415   1_556  A
C458       C1438   1.402       .  A
C459        C460   1.519       .  S
C460        F464   1.383       .  S
C460        F465   1.383       .  S
C460        F466   1.384       .  S
C463        F467   1.383       .  S
C463        F468   1.384       .  S
C463        F469   1.383       .  S
C470        C475   1.403       .  A
C470       C1452   1.405       .  A
C470        H477   1.084       .  S
C471        C472   1.420   1_556  A
C471       C1451   1.404       .  A
C472        C473   1.401       .  A
C472        C479   1.520       .  S
C473        C474   1.403   1_554  A
C473        H478   1.083       .  S
C474       C1456   1.421       .  A
C475       C1455   1.416       .  A
C475        C476   1.519       .  S
C476        F480   1.382       .  S
C476        F481   1.384       .  S
C476        F482   1.382       .  S
C479        F483   1.384       .  S
C479        F484   1.383       .  S
C479        F485   1.385       .  S
C486        C487   1.406   1_556  A
C486        C491   1.411   1_545  A
C486        H493   1.082       .  S
C487       C1469   1.423       .  A
C488        C489   1.414   1_545  A
C488       C1468   1.422       .  A
C488        C495   1.519       .  S
C489        C490   1.406       .  A
C489        H494   1.082       .  S
C490       C1472   1.423       .  A
C491       C1471   1.422   1_556  A
C491        C492   1.520       .  S
C492        F498   1.383       .  S
C492       F1477   1.383       .  S
C492       F1478   1.384       .  S
C495        F499   1.382       .  S
C495       F1481   1.383       .  S
C495       F1482   1.385       .  S
F496       C1473   1.383       .  S
F497       C1473   1.384       .  S
F500       C1476   1.384       .  S
F501       C1476   1.385       .  S
C502        C503   1.406   1_556  A
C502        C507   1.410   1_655  A
C502        H509   1.083       .  S
C503        C504   1.422       .  A
C504        C505   1.412   1_655  A
C504        C511   1.519       .  S
C505        C506   1.405       .  A
C505        H510   1.082       .  S
C506       C1328   1.494       .  S
C506        C507   1.420   1_554  A
C507       C1489   1.518       .  S
C508       C1488   1.518       .  S
C508        F514   1.383       .  S
C508       F1493   1.384       .  S
C508       F1494   1.382       .  S
C511        F515   1.384       .  S
C511       F1497   1.382       .  S
C511       F1498   1.385       .  S
F512       C1489   1.385       .  S
F513       C1489   1.381       .  S
F516       C1492   1.381       .  S
F517       C1492   1.385       .  S
C518        C523   1.400       .  A
C518       C1500   1.404       .  A
C518        H525   1.082       .  S
C519        C520   1.419       .  A
C519       C1499   1.403   1_554  A
C520        C521   1.403       .  A
C520        C527   1.520       .  S
C521        C522   1.405       .  A
C521        H526   1.084       .  S
C522       C1504   1.421   1_554  A
C523       C1503   1.421       .  A
C523        C524   1.521       .  S
C524        F528   1.385       .  S
C524        F529   1.384       .  S
C524        F530   1.383       .  S
C527        F531   1.384       .  S
C527        F532   1.383       .  S
C527        F533   1.385       .  S
C534        C535   1.409   1_554  A
C534        C539   1.417   1_455  A
C534        H541   1.082       .  S
C535        C536   1.426       .  A
C536        C537   1.415   1_455  A
C536        C543   1.519       .  S
C537        C538   1.406   1_556  A
C537        H542   1.082       .  S
C538       C1148   1.506       .  S
C538        C539   1.424       .  A
C539        C540   1.521       .  S
C540        F544   1.385       .  S
C540        F545   1.384       .  S
C540       F1527   1.383       .  S
C543        F547   1.381       .  S
C543       F1529   1.383       .  S
C543       F1530   1.385       .  S
F546       C1521   1.383       .  S
F548       C1524   1.384       .  S
F549       C1524   1.385       .  S
C550        C551   1.408   1_554  A
C550        C555   1.418       .  A
C550       H1538   1.081       .  S
C551        C552   1.428       .  A
C552        C553   1.418       .  A
C552        C559   1.521       .  S
C553        C554   1.409   1_556  A
C553        H558   1.082       .  S
C554        C555   1.427       .  A
C555       C1537   1.519       .  S
C556       C1536   1.519       .  S
C556        F562   1.383       .  S
C556       F1541   1.385       .  S
C556       F1542   1.384       .  S
H557       C1531   1.081       .  S
C559        F563   1.383       .  S
C559        F565   1.385       .  S
C559       F1545   1.383       .  S
F560       C1537   1.385       .  S
F561       C1537   1.384       .  S
F564       C1540   1.383       .  S
C566        C567   1.399       .  A
C566        C571   1.399       .  A
C566        H573   1.080       .  S
C567        C568   1.413   1_554  A
C568        C569   1.405       .  A
C568        C575   1.516       .  S
C569        C570   1.408   1_556  A
C569        H574   1.084       .  S
C570        C571   1.426       .  A
C571        C572   1.522       .  S
C572        F576   1.385       .  S
C572        F578   1.383       .  S
C572       F1558   1.384       .  S
C575        F580   1.382       .  S
C575        F581   1.384       .  S
C575       F1560   1.385       .  S
F577       C1553   1.384       .  S
F579       C1556   1.383       .  S
C582        C583   1.400       .  A
C582        C587   1.399       .  A
C582        H589   1.082       .  S
C583        C584   1.411   1_554  A
C584        C585   1.400       .  A
C584        C591   1.515       .  S
C585        C586   1.406   1_556  A
C585        H590   1.084       .  S
C586        C587   1.426       .  A
C587        C588   1.524       .  S
C588        F592   1.385       .  S
C588        F594   1.383       .  S
C588       F1574   1.384       .  S
C591        F596   1.383       .  S
C591        F597   1.382       .  S
C591       F1576   1.383       .  S
F593       C1569   1.382       .  S
F595       C1572   1.383       .  S
C598        C599   1.412       .  A
C598        C603   1.411       .  A
C598        H605   1.082       .  S
C599        C600   1.419       .  A
C600        C601   1.402       .  A
C600        C607   1.522       .  S
C601        C602   1.406       .  A
C601        H606   1.083       .  S
C602        C603   1.412       .  A
C603        C604   1.517       .  S
C604        F608   1.384       .  S
C604        F609   1.383       .  S
C604        F610   1.383       .  S
C607        F611   1.384       .  S
C607        F612   1.383       .  S
C607        F613   1.385       .  S
C614        C615   1.413       .  A
C614        C619   1.414       .  A
C614        H621   1.068       .  S
C615        C616   1.409       .  A
C616        C617   1.404       .  A
C616        C623   1.519       .  S
C617        C618   1.411       .  A
C617        H622   1.073       .  S
C618        C619   1.412       .  A
C619        C620   1.517       .  S
C620        F624   1.384       .  S
C620        F625   1.383       .  S
C620        F626   1.383       .  S
C623        F627   1.384       .  S
C623        F628   1.382       .  S
C623        F629   1.384       .  S
C630        C631   1.410       .  A
C630        C635   1.405       .  A
C630        H637   1.083       .  S
C631        C632   1.416       .  A
C632        C633   1.410       .  A
C632        C639   1.517       .  S
C633        C634   1.408       .  A
C633        H638   1.083       .  S
C634        C635   1.413       .  A
C635        C636   1.519       .  S
C636        F640   1.385       .  S
C636        F641   1.384       .  S
C636        F642   1.382       .  S
C639        F643   1.381       .  S
C639        F644   1.383       .  S
C639        F645   1.385       .  S
C646        C647   1.408       .  A
C646        C651   1.409       .  A
C646        H653   1.083       .  S
C647        C648   1.415       .  A
C648        C649   1.405       .  A
C648        C655   1.519       .  S
C649        C650   1.405       .  A
C649        H654   1.084       .  S
C650        C651   1.410       .  A
C651        C652   1.515       .  S
C652        F656   1.385       .  S
C652        F657   1.383       .  S
C652        F658   1.383       .  S
C655        F659   1.384       .  S
C655        F660   1.382       .  S
C655        F661   1.385       .  S
C662        C663   1.406       .  A
C662        C667   1.404       .  A
C662        H669   1.083       .  S
C663        C664   1.409       .  A
C664        C665   1.408       .  A
C664        C671   1.517       .  S
C665        C666   1.412       .  A
C665        H670   1.082       .  S
C666        C667   1.417       .  A
C667        C668   1.520       .  S
C668        F672   1.385       .  S
C668        F673   1.383       .  S
C668        F674   1.383       .  S
C671        F675   1.382       .  S
C671        F676   1.384       .  S
C671        F677   1.385       .  S
C678        C679   1.408       .  A
C678        C683   1.408       .  A
C678        H685   1.083       .  S
C679        C680   1.413       .  A
C680        C681   1.406       .  A
C680        C687   1.520       .  S
C681        C682   1.413       .  A
C681        H686   1.082       .  S
C682        C683   1.418       .  A
C683        C684   1.517       .  S
C684        F688   1.385       .  S
C684        F689   1.381       .  S
C684        F690   1.383       .  S
C687        F691   1.384       .  S
C687        F692   1.382       .  S
C687        F693   1.383       .  S
C694        C695   1.405       .  A
C694        C699   1.408       .  A
C694        H701   1.084       .  S
C695        C696   1.410       .  A
C696        C697   1.405       .  A
C696        C703   1.517       .  S
C697        C698   1.408       .  A
C697        H702   1.084       .  S
C698        C699   1.417       .  A
C699        C700   1.518       .  S
C700        F704   1.385       .  S
C700        F705   1.383       .  S
C700        F706   1.383       .  S
C703        F707   1.383       .  S
C703        F708   1.382       .  S
C703        F709   1.382       .  S
C710        C711   1.399       .  A
C710        C715   1.409       .  A
C710        H717   1.083       .  S
C711        C712   1.420       .  A
C712        C713   1.403       .  A
C712        C719   1.522       .  S
C713        C714   1.398       .  A
C713        H718   1.083       .  S
C714        C715   1.420       .  A
C715        C716   1.519       .  S
C716        F720   1.384       .  S
C716        F721   1.384       .  S
C716        F722   1.381       .  S
C719        F723   1.382       .  S
C719        F724   1.383       .  S
C719        F725   1.384       .  S
C726        C727   1.396       .  A
C726        C731   1.404       .  A
C726        H733   1.083       .  S
C727        C728   1.424       .  A
C728        C729   1.412       .  A
C728        C735   1.519       .  S
C729        C730   1.401       .  A
C729        H734   1.082       .  S
C730        C731   1.428       .  A
C731        C732   1.521       .  S
C732        F736   1.385       .  S
C732        F737   1.384       .  S
C732        F738   1.383       .  S
C735        F739   1.383       .  S
C735        F740   1.383       .  S
C735        F741   1.385       .  S
C742        C743   1.409       .  A
C742        C747   1.413       .  A
C742        H749   1.083       .  S
C743        C744   1.412       .  A
C744        C745   1.407       .  A
C744        C751   1.519       .  S
C745        C746   1.410       .  A
C745        H750   1.083       .  S
C746        C747   1.415       .  A
C747        C748   1.516       .  S
C748        F752   1.384       .  S
C748        F753   1.383       .  S
C748        F754   1.384       .  S
C751        F755   1.384       .  S
C751        F756   1.382       .  S
C751        F757   1.384       .  S
C758        C759   1.414       .  A
C758        C763   1.410       .  A
C758        H765   1.080       .  S
C759        C760   1.418       .  A
C760        C761   1.403       .  A
C760        C767   1.523       .  S
C761        C762   1.412       .  A
C761        H766   1.081       .  S
C762        C763   1.413       .  A
C763        C764   1.518       .  S
C764        F768   1.385       .  S
C764        F769   1.383       .  S
C764        F770   1.383       .  S
C767        F771   1.384       .  S
C767        F772   1.383       .  S
C767        F773   1.385       .  S
C774        C775   1.410       .  A
C774        C779   1.412       .  A
C774        H781   1.084       .  S
C775        C776   1.415       .  A
C776        C777   1.405       .  A
C776        C783   1.520       .  S
C777        C778   1.407       .  A
C777        H782   1.084       .  S
C778        C779   1.411       .  A
C779        C780   1.515       .  S
C780        F784   1.384       .  S
C780        F785   1.383       .  S
C780        F786   1.383       .  S
C783        F787   1.384       .  S
C783        F788   1.383       .  S
C783        F789   1.384       .  S
C790        C791   1.400       .  A
C790        C795   1.413       .  A
C790        H797   1.083       .  S
C791        C792   1.421       .  A
C792        C793   1.409       .  A
C792        C799   1.520       .  S
C793        C794   1.401       .  A
C793        H798   1.083       .  S
C794        C795   1.424       .  A
C795        C796   1.519       .  S
C796        F800   1.384       .  S
C796        F801   1.384       .  S
C796        F802   1.381       .  S
C799        F803   1.382       .  S
C799        F804   1.384       .  S
C799        F805   1.384       .  S
C806        C807   1.410       .  A
C806        C811   1.411       .  A
C806        H813   1.082       .  S
C807        C808   1.414       .  A
C808        C809   1.406       .  A
C808        C815   1.520       .  S
C809        C810   1.413       .  A
C809        H814   1.081       .  S
C810        C811   1.418       .  A
C811        C812   1.516       .  S
C812        F816   1.385       .  S
C812        F817   1.381       .  S
C812        F818   1.383       .  S
C815        F819   1.384       .  S
C815        F820   1.382       .  S
C815        F821   1.383       .  S
C822        C823   1.405       .  A
C822        C827   1.404       .  A
C822        H829   1.083       .  S
C823        C824   1.411       .  A
C824        C825   1.404       .  A
C824        C831   1.519       .  S
C825        C826   1.410       .  A
C825        H830   1.083       .  S
C826        C827   1.417       .  A
C827        C828   1.519       .  S
C828        F832   1.385       .  S
C828        F833   1.383       .  S
C828        F834   1.383       .  S
C831        F835   1.383       .  S
C831        F836   1.382       .  S
C831        F837   1.383       .  S
C838        C839   1.408       .  A
C838        C843   1.401       .  A
C838        H845   1.083       .  S
C839        C840   1.409       .  A
C840        C841   1.409       .  A
C840        C847   1.517       .  S
C841        C842   1.414       .  A
C841        H846   1.083       .  S
C842        C843   1.414       .  A
C843        C844   1.519       .  S
C844        F848   1.385       .  S
C844        F849   1.383       .  S
C844        F850   1.382       .  S
C847        F851   1.382       .  S
C847        F852   1.383       .  S
C847        F853   1.385       .  S
C854        C855   1.405       .  A
C854        C859   1.407       .  A
C854        H861   1.083       .  S
C855        C856   1.410       .  A
C856        C857   1.411       .  A
C856        C863   1.516       .  S
C857        C858   1.411       .  A
C857        H862   1.082       .  S
C858        C859   1.420       .  A
C859        C860   1.520       .  S
C860        F864   1.384       .  S
C860        F865   1.384       .  S
C860        F866   1.383       .  S
C863        F867   1.383       .  S
C863        F868   1.384       .  S
C863        F869   1.382       .  S
C870        C871   1.400       .  A
C870        C875   1.409       .  A
C870        H877   1.084       .  S
C871        C872   1.416       .  A
C872        C873   1.408       .  A
C872        C879   1.519       .  S
C873        C874   1.401       .  A
C873        H878   1.084       .  S
C874        C875   1.420       .  A
C875        C876   1.518       .  S
C876        F880   1.385       .  S
C876        F881   1.382       .  S
C876        F882   1.383       .  S
C879        F883   1.383       .  S
C879        F884   1.383       .  S
C879        F885   1.384       .  S
C886        C887   1.412       .  A
C886        C891   1.408       .  A
C886        H893   1.081       .  S
C887        C888   1.414       .  A
C888        C889   1.414       .  A
C888        C895   1.517       .  S
C889        C890   1.416       .  A
C889        H894   1.082       .  S
C890        C891   1.419       .  A
C891        C892   1.521       .  S
C892        F896   1.385       .  S
C892        F897   1.383       .  S
C892        F898   1.383       .  S
C895        F899   1.384       .  S
C895        F900   1.382       .  S
C895        F901   1.384       .  S
C902        C903   1.407       .  A
C902        C907   1.413       .  A
C902        H909   1.082       .  S
C903        C904   1.413       .  A
C904        C905   1.410       .  A
C904        C911   1.517       .  S
C905        C906   1.409       .  A
C905        H910   1.082       .  S
C906        C907   1.419       .  A
C907        C908   1.518       .  S
C908        F912   1.384       .  S
C908        F913   1.384       .  S
C908        F914   1.383       .  S
C911        F915   1.383       .  S
C911        F916   1.384       .  S
C911        F917   1.381       .  S
C918        C919   1.408       .  A
C918        C923   1.407       .  A
C918        H925   1.084       .  S
C919        C920   1.418       .  A
C920        C921   1.404       .  A
C920        C927   1.520       .  S
C921        C922   1.403       .  A
C921        H926   1.084       .  S
C922        C923   1.408       .  A
C923        C924   1.516       .  S
C924        F928   1.383       .  S
C924        F929   1.383       .  S
C924        F930   1.384       .  S
C927        F931   1.383       .  S
C927        F932   1.382       .  S
C927        F933   1.385       .  S
C934        C935   1.404       .  A
C934        C939   1.399       .  A
C934        H941   1.084       .  S
C935        C936   1.409       .  A
C936        C937   1.407       .  A
C936        C943   1.515       .  S
C937        C938   1.408       .  A
C937        H942   1.083       .  S
C938        C939   1.416       .  A
C939        C940   1.521       .  S
C940        F944   1.385       .  S
C940        F945   1.382       .  S
C940        F946   1.383       .  S
C943        F947   1.383       .  S
C943        F948   1.383       .  S
C943        F949   1.384       .  S
C950        C951   1.414       .  A
C950        C955   1.413       .  A
C950        H957   1.082       .  S
C951        C952   1.420       .  A
C952        C953   1.404       .  A
C952        C959   1.524       .  S
C953        C954   1.411       .  A
C953        H958   1.081       .  S
C954        C955   1.412       .  A
C955        C956   1.515       .  S
C956        F960   1.383       .  S
C956        F961   1.384       .  S
C956        F962   1.381       .  S
C959        F963   1.383       .  S
C959        F964   1.383       .  S
C959        F965   1.385       .  S
C966        C967   1.410       .  A
C966        C971   1.412       .  A
C966        H973   1.082       .  S
C967        C968   1.414       .  A
C968        C969   1.409       .  A
C968        C975   1.519       .  S
C969        C970   1.411       .  A
C969        H974   1.083       .  S
C970        C971   1.416       .  A
C971        C972   1.517       .  S
C972        F976   1.385       .  S
C972        F977   1.383       .  S
C972        F978   1.383       .  S
C975        F979   1.382       .  S
C975        F980   1.384       .  S
C975        F981   1.385       .  S
N982        N983   1.327       .  A
N982        N988   1.317       .  A
N982      Mn1011   2.245       .  S
N983        C990   1.362       .  A
N984        N986   1.315       .  A
N984        N985   1.316       .  A
N984      Mn1000   2.169   1_565  S
N985        C991   1.348       .  A
N986        N987   1.320       .  A
N986      Mn1011   2.220       .  S
N987        C991   1.356       .  A
N988        N989   1.316       .  A
N988      Mn1000   2.175   1_565  S
N989        C990   1.344       .  A
C990       C1855   1.479       .  S
C991       C1839   1.484       .  S
N992        N998   1.315       .  A
N992        N993   1.324       .  A
N992      Mn1022   2.234       .  S
N993       C1001   1.359       .  A
N994        N995   1.315       .  A
N994        N996   1.316       .  A
N994      Mn1000   2.172       .  S
N995       C1002   1.345       .  A
N996        N997   1.326       .  A
N996      Mn1022   2.235       .  S
N997       C1002   1.360       .  A
N998        N999   1.320       .  A
N998      Mn1000   2.184       .  S
N999       C1001   1.351       .  A
Mn1000    Cl1024   2.528       .  S
C1001      C1932   1.495       .  S
C1002      C1948   1.478       .  S
N1003      N1004   1.326       .  A
N1003      N1009   1.315       .  A
N1003     Mn1011   2.244       .  S
N1004      C1012   1.362       .  A
N1005      N1007   1.315       .  A
N1005      N1006   1.319       .  A
N1005     Mn1023   2.185   1_565  S
N1006      C1013   1.349       .  A
N1007      N1008   1.325       .  A
N1007     Mn1011   2.237       .  S
N1008      C1013   1.361       .  A
N1009      N1010   1.315       .  A
N1009     Mn1023   2.162   1_565  S
N1010      C1012   1.345       .  A
Mn1011    Cl1024   2.567   1_565  S
C1012      C1871   1.485       .  S
C1013      C1884   1.492       .  S
N1014      N1015   1.325       .  A
N1014      N1020   1.315       .  A
N1014     Mn1022   2.231       .  S
N1015      C1025   1.360       .  A
N1016      N1017   1.317       .  A
N1016      N1018   1.315       .  A
N1016     Mn1023   2.183       .  S
N1017      C1026   1.349       .  A
N1018      N1019   1.324       .  A
N1018     Mn1022   2.226       .  S
N1019      C1026   1.359       .  A
N1020      N1021   1.313       .  A
N1020     Mn1023   2.154       .  S
N1021      C1025   1.342       .  A
Mn1022    Cl1024   2.570       .  S
Mn1023    Cl1024   2.524       .  S
C1025      C1919   1.474       .  S
C1026      C1900   1.489       .  S
N1027      N1028   1.325       .  A
N1027      N1033   1.315       .  A
N1027     Mn1056   2.224       .  S
N1028      C1035   1.359       .  A
N1029      N1031   1.315       .  A
N1029      N1030   1.316       .  A
N1029     Mn1045   2.170       .  S
N1030      C1036   1.344       .  A
N1031      N1032   1.328       .  A
N1031     Mn1056   2.245       .  S
N1032      C1036   1.362       .  A
N1033      N1034   1.316       .  A
N1033     Mn1045   2.180       .  S
N1034      C1035   1.347       .  A
C1035      C1724   1.478       .  S
C1036      C1708   1.482       .  S
N1037      N1043   1.317       .  A
N1037      N1038   1.328       .  A
N1037     Mn1067   2.257       .  S
N1038      C1046   1.365       .  A
N1039      N1040   1.313       .  A
N1039      N1041   1.315       .  A
N1039     Mn1045   2.161   1_455  S
N1040      C1047   1.345       .  A
N1041      N1042   1.323       .  A
N1041     Mn1067   2.229       .  S
N1042      C1047   1.359       .  A
N1043      N1044   1.316       .  A
N1043     Mn1045   2.171   1_455  S
N1044      C1046   1.345       .  A
Mn1045    Cl1069   2.517       .  S
C1046      C1804   1.493       .  S
C1047      C1823   1.482       .  S
N1048      N1049   1.322       .  A
N1048      N1054   1.314       .  A
N1048     Mn1056   2.215       .  S
N1049      C1057   1.358       .  A
N1050      N1052   1.315       .  A
N1050      N1051   1.313       .  A
N1050     Mn1068   2.158       .  S
N1051      C1058   1.344       .  A
N1052      N1053   1.325       .  A
N1052     Mn1056   2.234       .  S
N1053      C1058   1.361       .  A
N1054      N1055   1.311       .  A
N1054     Mn1068   2.153       .  S
N1055      C1057   1.344       .  A
Mn1056    Cl1069   2.576       .  S
C1057      C1740   1.477       .  S
C1058      C1756   1.479       .  S
N1059      N1060   1.328       .  A
N1059      N1065   1.315       .  A
N1059     Mn1067   2.258       .  S
N1060      C1070   1.364       .  A
N1061      N1062   1.316       .  A
N1061      N1063   1.315       .  A
N1061     Mn1068   2.166   1_455  S
N1062      C1071   1.344       .  A
N1063      N1064   1.328       .  A
N1063     Mn1067   2.251       .  S
N1064      C1071   1.364       .  A
N1065      N1066   1.317       .  A
N1065     Mn1068   2.172   1_455  S
N1066      C1070   1.347       .  A
Mn1067    Cl1069   2.573   1_455  S
Mn1068    Cl1069   2.521       .  S
C1070      C1788   1.495       .  S
C1071      C1775   1.486       .  S
N1072      N1073   1.325       .  A
N1072      N1078   1.315       .  A
N1072     Mn1101   2.233       .  S
N1073      C1080   1.360       .  A
N1074      N1076   1.314       .  A
N1074      N1075   1.314       .  A
N1074     Mn1090   2.167       .  S
N1075      C1081   1.345       .  A
N1076      N1077   1.320       .  A
N1076     Mn1101   2.201       .  S
N1077      C1081   1.353       .  A
N1078      N1079   1.315       .  A
N1078     Mn1090   2.168       .  S
N1079      C1080   1.345       .  A
C1080      C1596   1.480       .  S
C1081      C1580   1.460       .  S
N1082      N1088   1.316       .  A
N1082      N1083   1.324       .  A
N1082     Mn1112   2.237       .  S
N1083      C1091   1.360       .  A
N1084      N1085   1.315       .  A
N1084      N1086   1.317       .  A
N1084     Mn1090   2.164       .  S
N1085      C1092   1.342       .  A
N1086      N1087   1.328       .  A
N1086     Mn1112   2.252       .  S
N1087      C1092   1.363       .  A
N1088      N1089   1.317       .  A
N1088     Mn1090   2.175       .  S
N1089      C1091   1.348       .  A
Mn1090    Cl1114   2.523       .  S
C1091      C1676   1.487       .  S
C1092      C1695   1.478       .  S
N1093      N1094   1.324       .  A
N1093      N1099   1.315       .  A
N1093     Mn1101   2.222       .  S
N1094      C1102   1.358       .  A
N1095      N1097   1.314       .  A
N1095      N1096   1.313       .  A
N1095     Mn1113   2.164       .  S
N1096      C1103   1.345       .  A
N1097      N1098   1.322       .  A
N1097     Mn1101   2.207       .  S
N1098      C1103   1.357       .  A
N1099      N1100   1.316       .  A
N1099     Mn1113   2.175       .  S
N1100      C1102   1.347       .  A
Mn1101    Cl1114   2.571       .  S
C1102      C1615   1.476       .  S
C1103      C1628   1.472       .  S
N1104      N1105   1.325       .  A
N1104      N1110   1.316       .  A
N1104     Mn1112   2.238       .  S
N1105      C1115   1.361       .  A
N1106      N1107   1.315       .  A
N1106      N1108   1.315       .  A
N1106     Mn1113   2.162       .  S
N1107      C1116   1.345       .  A
N1108      N1109   1.326       .  A
N1108     Mn1112   2.246       .  S
N1109      C1116   1.362       .  A
N1110      N1111   1.317       .  A
N1110     Mn1113   2.174       .  S
N1111      C1115   1.345       .  A
Mn1112    Cl1114   2.572       .  S
Mn1113    Cl1114   2.516       .  S
C1115      C1660   1.482       .  S
C1116      C1647   1.489       .  S
N1117      N1118   1.328       .  A
N1117      N1123   1.317       .  A
N1117     Mn1146   2.245       .  S
N1118      C1125   1.361       .  A
N1119      N1121   1.316       .  A
N1119      N1120   1.310       .  A
N1119     Mn1135   2.157       .  S
N1120      C1126   1.342       .  A
N1121      N1122   1.325       .  A
N1121     Mn1146   2.226       .  S
N1122      C1126   1.359       .  A
N1123      N1124   1.313       .  A
N1123     Mn1135   2.157       .  S
N1124      C1125   1.341       .  A
C1125      C1727   1.472       .  S
C1126      C1631   1.467       .  S
N1127      N1128   1.322       .  A
N1127     Mn1157   2.196       .  S
N1128      C1136   1.358       .  A
N1129      N1130   1.320       .  A
N1129     Mn1135   2.181       .  S
N1131      N1132   1.322       .  A
N1131     Mn1157   2.191       .  S
N1132      C1137   1.358       .  A
N1133      N1134   1.318       .  A
N1133     Mn1135   2.170       .  S
C1136      C1564   1.482       .  S
C1137      C1548   1.474       .  S
N1138      N1139   1.326       .  A
N1138     Mn1146   2.239       .  S
N1140      N1141   1.320       .  A
N1140     Mn1158   2.208       .  S
N1142      N1143   1.325       .  A
N1142     Mn1146   2.233       .  S
N1143      C1148   1.359   1_556  A
N1144      N1145   1.325       .  A
N1144     Mn1158   2.237       .  S
N1145      C1147   1.357       .  A
C1147      C1535   1.509       .  S
N1149      N1150   1.315       .  A
N1149      N1155   1.316       .  A
N1149     Mn1157   2.176       .  S
N1150      C1160   1.345       .  A
N1151      N1152   1.325       .  A
N1151      N1153   1.316       .  A
N1151     Mn1158   2.223       .  S
N1152      C1161   1.358       .  A
N1153      N1154   1.314       .  A
N1153     Mn1157   2.169       .  S
N1154      C1161   1.344       .  A
N1155      N1156   1.328       .  A
N1155     Mn1158   2.250       .  S
N1156      C1160   1.363       .  A
Mn1157    Cl1159   2.550       .  S
Mn1158    Cl1159   2.545       .  S
C1160      C1711   1.486       .  S
C1161      C1612   1.468       .  S
N1162      N1163   1.328       .  A
N1162      N1168   1.315       .  A
N1162     Mn1191   2.233       .  S
N1163      C1170   1.361       .  A
N1164      N1166   1.314       .  A
N1164      N1165   1.309       .  A
N1164     Mn1180   2.152       .  S
N1165      C1171   1.343       .  A
N1166      N1167   1.328       .  A
N1166     Mn1191   2.236       .  S
N1167      C1171   1.363       .  A
N1168      N1169   1.309       .  A
N1168     Mn1180   2.154       .  S
N1169      C1170   1.340       .  A
C1170      C1916   1.468       .  S
C1171      C1759   1.485       .  S
N1172      N1173   1.319       .  A
N1172     Mn1202   2.182       .  S
N1173      C1181   1.353       .  A
N1174      N1175   1.314       .  A
N1174     Mn1180   2.171       .  S
N1176      N1177   1.316       .  A
N1176     Mn1202   2.171       .  S
N1177      C1182   1.354       .  A
N1178      N1179   1.322       .  A
N1178     Mn1180   2.186       .  S
C1181      C1551   1.472       .  S
C1182      C1503   1.477       .  S
N1183      N1184   1.322       .  A
N1183     Mn1191   2.219       .  S
N1185      N1186   1.323       .  A
N1185     Mn1203   2.221       .  S
N1186      C1193   1.354       .  A
N1187      N1188   1.323       .  A
N1187     Mn1191   2.227       .  S
N1189      N1190   1.322       .  A
N1189     Mn1203   2.217       .  S
N1190      C1192   1.354       .  A
C1192      C1484   1.498       .  S
C1193      C1468   1.499       .  S
N1194      N1195   1.314       .  A
N1194      N1200   1.315       .  A
N1194     Mn1202   2.165       .  S
N1195      C1205   1.345       .  A
N1196      N1197   1.324       .  A
N1196      N1198   1.313       .  A
N1196     Mn1203   2.222       .  S
N1197      C1206   1.360       .  A
N1198      N1199   1.309       .  A
N1198     Mn1202   2.147       .  S
N1199      C1206   1.345       .  A
N1200      N1201   1.326       .  A
N1200     Mn1203   2.235       .  S
N1201      C1205   1.360       .  A
Mn1202    Cl1204   2.534       .  S
Mn1203    Cl1204   2.546       .  S
C1205      C1903   1.481       .  S
C1206      C1743   1.485       .  S
N1207      N1208   1.329       .  A
N1207      N1213   1.314       .  A
N1207     Mn1236   2.244       .  S
N1208      C1215   1.363       .  A
N1209      N1211   1.313       .  A
N1209      N1210   1.305       .  A
N1209     Mn1225   2.136       .  S
N1210      C1216   1.338       .  A
N1211      N1212   1.330       .  A
N1211     Mn1236   2.237       .  S
N1212      C1216   1.365       .  A
N1213      N1214   1.311       .  A
N1213     Mn1225   2.151       .  S
N1214      C1215   1.341       .  A
C1215      C1852   1.476       .  S
C1216      C1820   1.473       .  S
N1217      N1218   1.315       .  A
N1217     Mn1247   2.172       .  S
N1218      C1226   1.354       .  A
N1219      N1220   1.315       .  A
N1219     Mn1225   2.165       .  S
N1221      N1222   1.316       .  A
N1221     Mn1247   2.176       .  S
N1222      C1227   1.354       .  A
N1223      N1224   1.316       .  A
N1223     Mn1225   2.167       .  S
C1226      C1436   1.478       .  S
C1227      C1455   1.477       .  S
N1228      N1229   1.324       .  A
N1228     Mn1236   2.230       .  S
N1230      N1231   1.326       .  A
N1230     Mn1248   2.236       .  S
N1231      C1238   1.360       .  A
N1232      N1233   1.322       .  A
N1232     Mn1236   2.225       .  S
N1234      N1235   1.320       .  A
N1234     Mn1248   2.210       .  S
N1235      C1237   1.355       .  A
C1237      C1516   1.493       .  S
C1238      C1420   1.503       .  S
N1239      N1240   1.307       .  A
N1239      N1245   1.313       .  A
N1239     Mn1247   2.144       .  S
N1240      C1250   1.342       .  A
N1241      N1242   1.331       .  A
N1241      N1243   1.314       .  A
N1241     Mn1248   2.254       .  S
N1242      C1251   1.366       .  A
N1243      N1244   1.310       .  A
N1243     Mn1247   2.155       .  S
N1244      C1251   1.343       .  A
N1245      N1246   1.329       .  A
N1245     Mn1248   2.231       .  S
N1246      C1250   1.363       .  A
Mn1247    Cl1249   2.513       .  S
Mn1248    Cl1249   2.564       .  S
C1250      C1836   1.480       .  S
C1251      C1807   1.493       .  S
N1252      N1253   1.315       .  A
N1252     Mn1281   2.170       .  S
N1253      C1260   1.348       .  A
N1254      N1255   1.318       .  A
N1254     Mn1270   2.182       .  S
N1256      N1257   1.315       .  A
N1256     Mn1281   2.161       .  S
N1257      C1261   1.347       .  A
N1258      N1259   1.318       .  A
N1258     Mn1270   2.180       .  S
C1260      C1452   1.480       .  S
C1261      C1407   1.480       .  S
N1262      N1268   1.314       .  A
N1262      N1263   1.330       .  A
N1262     Mn1292   2.244       .  S
N1263      C1271   1.364       .  A
N1264      N1265   1.312       .  A
N1264      N1266   1.315       .  A
N1264     Mn1270   2.163       .  S
N1265      C1272   1.345       .  A
N1266      N1267   1.331       .  A
N1266     Mn1292   2.257       .  S
N1267      C1272   1.365       .  A
N1268      N1269   1.310       .  A
N1268     Mn1270   2.152       .  S
N1269      C1271   1.342       .  A
C1271      C1663   1.483       .  S
C1272      C1887   1.493       .  S
N1273      N1274   1.307       .  A
N1273      N1279   1.314       .  A
N1273     Mn1281   2.146       .  S
N1274      C1282   1.340       .  A
N1275      N1277   1.314       .  A
N1275      N1276   1.331       .  A
N1275     Mn1293   2.254       .  S
N1276      C1283   1.366       .  A
N1277      N1278   1.310       .  A
N1277     Mn1281   2.150       .  S
N1278      C1283   1.342       .  A
N1279      N1280   1.332       .  A
N1279     Mn1293   2.247       .  S
N1280      C1282   1.366       .  A
Mn1281    Cl1294   2.514       .  S
C1282      C1644   1.481       .  S
C1283      C1868   1.489       .  S
N1284      N1285   1.321       .  A
N1284     Mn1292   2.224       .  S
N1285      C1295   1.354   1_556  A
N1286      N1287   1.327       .  A
N1286     Mn1293   2.240       .  S
N1287      C1296   1.360       .  A
N1288      N1289   1.324       .  A
N1288     Mn1292   2.236       .  S
N1290      N1291   1.324       .  A
N1290     Mn1293   2.228       .  S
Mn1293    Cl1294   2.572       .  S
C1295      C1471   1.498       .  S
C1296      C1532   1.515       .  S
N1297      N1298   1.333       .  A
N1297      N1303   1.314       .  A
N1297     Mn1326   2.262       .  S
N1298      C1305   1.368       .  A
N1299      N1301   1.314       .  A
N1299      N1300   1.311       .  A
N1299     Mn1315   2.147       .  S
N1300      C1306   1.339       .  A
N1301      N1302   1.330       .  A
N1301     Mn1326   2.253       .  S
N1302      C1306   1.365       .  A
N1303      N1304   1.311       .  A
N1303     Mn1315   2.159       .  S
N1304      C1305   1.344       .  A
C1305      C1791   1.499       .  S
C1306      C1692   1.476       .  S
N1307      N1308   1.317       .  A
N1307     Mn1337   2.176       .  S
N1308      C1316   1.354       .  A
N1309      N1310   1.316       .  A
N1309     Mn1315   2.169       .  S
N1311      N1312   1.313       .  A
N1311     Mn1337   2.171       .  S
N1312      C1317   1.348       .  A
N1313      N1314   1.315       .  A
N1313     Mn1315   2.167       .  S
C1316      C1404   1.478       .  S
C1317      C1439   1.482       .  S
N1318      N1319   1.326       .  A
N1318     Mn1326   2.249       .  S
N1320      N1321   1.322       .  A
N1320     Mn1338   2.217       .  S
N1322      N1323   1.323       .  A
N1322     Mn1326   2.227       .  S
N1323      C1328   1.355   1_556  A
N1324      N1325   1.323       .  A
N1324     Mn1338   2.232       .  S
N1325      C1327   1.356       .  A
C1327      C1391   1.516       .  S
N1329      N1330   1.311       .  A
N1329      N1335   1.314       .  A
N1329     Mn1337   2.158       .  S
N1330      C1340   1.344       .  A
N1331      N1332   1.330       .  A
N1331      N1333   1.313       .  A
N1331     Mn1338   2.243       .  S
N1332      C1341   1.366       .  A
N1333      N1334   1.309       .  A
N1333     Mn1337   2.148       .  S
N1334      C1341   1.342       .  A
N1335      N1336   1.330       .  A
N1335     Mn1338   2.248       .  S
N1336      C1340   1.364       .  A
Mn1337    Cl1339   2.522       .  S
Mn1338    Cl1339   2.560       .  S
C1340      C1772   1.484       .  S
C1341      C1679   1.488       .  S
N1342      N1343   1.317       .  A
N1342     Mn1371   2.175       .  S
N1343      C1350   1.352       .  A
N1344      N1345   1.320       .  A
N1344     Mn1360   2.186       .  S
N1346      N1347   1.317       .  A
N1346     Mn1371   2.177       .  S
N1347      C1351   1.352       .  A
N1348      N1349   1.317       .  A
N1348     Mn1360   2.173       .  S
C1350      C1500   1.475       .  S
C1351      C1567   1.477       .  S
N1352      N1358   1.314       .  A
N1352      N1353   1.327       .  A
N1352     Mn1382   2.245       .  S
N1353      C1361   1.363       .  A
N1354      N1355   1.313       .  A
N1354      N1356   1.315       .  A
N1354     Mn1360   2.165       .  S
N1355      C1362   1.344       .  A
N1356      N1357   1.327       .  A
N1356     Mn1382   2.238       .  S
N1357      C1362   1.362       .  A
N1358      N1359   1.312       .  A
N1358     Mn1360   2.156       .  S
N1359      C1361   1.344       .  A
C1361      C1599   1.486       .  S
C1362      C1951   1.481       .  S
N1363      N1364   1.311       .  A
N1363      N1369   1.314       .  A
N1363     Mn1371   2.155       .  S
N1364      C1372   1.343       .  A
N1365      N1367   1.315       .  A
N1365      N1366   1.328       .  A
N1365     Mn1383   2.248       .  S
N1366      C1373   1.364       .  A
N1367      N1368   1.315       .  A
N1367     Mn1371   2.173       .  S
N1368      C1373   1.348       .  A
N1369      N1370   1.322       .  A
N1369     Mn1383   2.214       .  S
N1370      C1372   1.357       .  A
Mn1371    Cl1384   2.534       .  S
C1372      C1583   1.469       .  S
C1373      C1935   1.501       .  S
N1374      N1375   1.325       .  A
N1374     Mn1382   2.237       .  S
N1375      C1385   1.359   1_556  A
N1376      N1377   1.325       .  A
N1376     Mn1383   2.235       .  S
N1377      C1386   1.359       .  A
N1378      N1379   1.321       .  A
N1378     Mn1382   2.224       .  S
N1380      N1381   1.322       .  A
N1380     Mn1383   2.214       .  S
Mn1383    Cl1384   2.551       .  S
C1386      C1388   1.517       .  S
C1387      C1388   1.409       .  A
C1387      C1392   1.416       .  A
C1387      H1394   1.081       .  S
C1388      C1389   1.428       .  A
C1389      C1390   1.418       .  A
C1389      C1396   1.520       .  S
C1390      C1391   1.409       .  A
C1390      H1395   1.082       .  S
C1391      C1392   1.427       .  A
C1392      C1393   1.521       .  S
C1393      F1397   1.385       .  S
C1393      F1398   1.383       .  S
C1396      F1400   1.383       .  S
C1403      C1404   1.403       .  A
C1403      C1408   1.402       .  A
C1403      H1410   1.082       .  S
C1404      C1405   1.417       .  A
C1405      C1406   1.401       .  A
C1405      C1412   1.519       .  S
C1406      C1407   1.403       .  A
C1406      H1411   1.084       .  S
C1407      C1408   1.424       .  A
C1408      C1409   1.523       .  S
C1409      F1413   1.385       .  S
C1409      F1415   1.383       .  S
C1412      F1417   1.384       .  S
C1412      F1418   1.383       .  S
C1419      C1420   1.407       .  A
C1419      C1424   1.416   1_565  A
C1419      H1426   1.083       .  S
C1421      C1422   1.413   1_565  A
C1421      C1428   1.521       .  S
C1422      H1427   1.082       .  S
C1423      C1424   1.426       .  A
C1424      C1425   1.521       .  S
C1425      F1431   1.383       .  S
C1428      F1432   1.382       .  S
C1435      C1436   1.401       .  A
C1435      C1440   1.399       .  A
C1435      H1442   1.080       .  S
C1437      C1438   1.401       .  A
C1437      C1444   1.523       .  S
C1438      H1443   1.081       .  S
C1439      C1440   1.424       .  A
C1440      C1441   1.524       .  S
C1441      F1445   1.385       .  S
C1441      F1446   1.384       .  S
C1441      F1447   1.383       .  S
C1444      F1448   1.383       .  S
C1444      F1449   1.383       .  S
C1444      F1450   1.385       .  S
C1451      C1456   1.403       .  A
C1451      H1458   1.082       .  S
C1452      C1453   1.423       .  A
C1453      C1454   1.400       .  A
C1453      C1460   1.522       .  S
C1454      C1455   1.402       .  A
C1454      H1459   1.082       .  S
C1456      C1457   1.520       .  S
C1457      F1461   1.384       .  S
C1457      F1462   1.383       .  S
C1457      F1463   1.383       .  S
C1460      F1464   1.382       .  S
C1460      F1465   1.383       .  S
C1460      F1466   1.385       .  S
C1467      C1468   1.406       .  A
C1467      C1472   1.415   1_545  A
C1467      H1474   1.083       .  S
C1469      C1470   1.414   1_545  A
C1469      C1476   1.520       .  S
C1470      C1471   1.407       .  A
C1470      H1475   1.082       .  S
C1472      C1473   1.519       .  S
C1473      F1479   1.382       .  S
C1476      F1480   1.382       .  S
C1483      C1484   1.405       .  A
C1483      C1488   1.410   1_655  A
C1483      H1490   1.082       .  S
C1484      C1485   1.423       .  A
C1485      C1486   1.412   1_655  A
C1485      C1492   1.520       .  S
C1486      C1487   1.408       .  A
C1486      H1491   1.082       .  S
C1487      C1488   1.423       .  A
C1489      F1495   1.384       .  S
C1492      F1496   1.383       .  S
C1499      C1504   1.400       .  A
C1499      H1506   1.084       .  S
C1500      C1501   1.414       .  A
C1501      C1502   1.399       .  A
C1501      C1508   1.515       .  S
C1502      C1503   1.403       .  A
C1502      H1507   1.083       .  S
C1504      C1505   1.521       .  S
C1505      F1509   1.384       .  S
C1505      F1510   1.384       .  S
C1505      F1511   1.383       .  S
C1508      F1512   1.384       .  S
C1508      F1513   1.383       .  S
C1508      F1514   1.384       .  S
C1515      C1516   1.406       .  A
C1515      C1520   1.409   1_455  A
C1515      H1522   1.082       .  S
C1516      C1517   1.421       .  A
C1517      C1518   1.408   1_455  A
C1517      C1524   1.520       .  S
C1518      C1519   1.406       .  A
C1518      H1523   1.081       .  S
C1519      C1520   1.425       .  A
C1520      C1521   1.522       .  S
C1521      F1525   1.385       .  S
C1521      F1526   1.383       .  S
C1524      F1528   1.382       .  S
C1531      C1532   1.410       .  A
C1531      C1536   1.419       .  A
C1532      C1533   1.428       .  A
C1533      C1534   1.415       .  A
C1533      C1540   1.519       .  S
C1534      C1535   1.405       .  A
C1534      H1539   1.082       .  S
C1535      C1536   1.424       .  A
C1537      F1543   1.382       .  S
C1540      F1544   1.383       .  S
C1540      F1546   1.384       .  S
C1547      C1548   1.403       .  A
C1547      C1552   1.402       .  A
C1547      H1554   1.083       .  S
C1548      C1549   1.425       .  A
C1549      C1550   1.399       .  A
C1549      C1556   1.524       .  S
C1550      C1551   1.400       .  A
C1550      H1555   1.082       .  S
C1551      C1552   1.412       .  A
C1552      C1553   1.514       .  S
C1553      F1557   1.385       .  S
C1553      F1559   1.381       .  S
C1556      F1561   1.384       .  S
C1556      F1562   1.385       .  S
C1563      C1564   1.404       .  A
C1563      C1568   1.400       .  A
C1563      H1570   1.084       .  S
C1564      C1565   1.426       .  A
C1565      C1566   1.404       .  A
C1565      C1572   1.520       .  S
C1566      C1567   1.400       .  A
C1566      H1571   1.083       .  S
C1567      C1568   1.412       .  A
C1568      C1569   1.513       .  S
C1569      F1573   1.384       .  S
C1569      F1575   1.384       .  S
C1572      F1577   1.384       .  S
C1572      F1578   1.385       .  S
C1579      C1580   1.401       .  A
C1579      C1584   1.403       .  A
C1579      H1586   1.083       .  S
C1580      C1581   1.409       .  A
C1581      C1582   1.401       .  A
C1581      C1588   1.519       .  S
C1582      C1583   1.406       .  A
C1582      H1587   1.082       .  S
C1583      C1584   1.417       .  A
C1584      C1585   1.520       .  S
C1585      F1589   1.384       .  S
C1585      F1590   1.384       .  S
C1585      F1591   1.382       .  S
C1588      F1592   1.383       .  S
C1588      F1593   1.383       .  S
C1588      F1594   1.381       .  S
C1595      C1596   1.407       .  A
C1595      C1600   1.411       .  A
C1595      H1602   1.079       .  S
C1596      C1597   1.411       .  A
C1597      C1598   1.407       .  A
C1597      C1604   1.518       .  S
C1598      C1599   1.410       .  A
C1598      H1603   1.082       .  S
C1599      C1600   1.416       .  A
C1600      C1601   1.518       .  S
C1601      F1605   1.384       .  S
C1601      F1606   1.383       .  S
C1601      F1607   1.384       .  S
C1604      F1608   1.384       .  S
C1604      F1609   1.383       .  S
C1604      F1610   1.382       .  S
C1611      C1612   1.402       .  A
C1611      C1616   1.405       .  A
C1611      H1618   1.083       .  S
C1612      C1613   1.409       .  A
C1613      C1614   1.407       .  A
C1613      C1620   1.517       .  S
C1614      C1615   1.407       .  A
C1614      H1619   1.083       .  S
C1615      C1616   1.416       .  A
C1616      C1617   1.519       .  S
C1617      F1621   1.385       .  S
C1617      F1622   1.382       .  S
C1617      F1623   1.383       .  S
C1620      F1624   1.384       .  S
C1620      F1625   1.383       .  S
C1620      F1626   1.384       .  S
C1627      C1628   1.409       .  A
C1627      C1632   1.404       .  A
C1627      H1634   1.083       .  S
C1628      C1629   1.415       .  A
C1629      C1630   1.400       .  A
C1629      C1636   1.520       .  S
C1630      C1631   1.405       .  A
C1630      H1635   1.084       .  S
C1631      C1632   1.408       .  A
C1632      C1633   1.517       .  S
C1633      F1637   1.385       .  S
C1633      F1638   1.383       .  S
C1633      F1639   1.383       .  S
C1636      F1640   1.384       .  S
C1636      F1641   1.382       .  S
C1636      F1642   1.385       .  S
C1643      C1644   1.407       .  A
C1643      C1648   1.403       .  A
C1643      H1650   1.083       .  S
C1644      C1645   1.410       .  A
C1645      C1646   1.412       .  A
C1645      C1652   1.516       .  S
C1646      C1647   1.414       .  A
C1646      H1651   1.082       .  S
C1647      C1648   1.416       .  A
C1648      C1649   1.520       .  S
C1649      F1653   1.385       .  S
C1649      F1654   1.383       .  S
C1649      F1655   1.383       .  S
C1652      F1656   1.383       .  S
C1652      F1657   1.383       .  S
C1652      F1658   1.385       .  S
C1659      C1660   1.409       .  A
C1659      C1664   1.413       .  A
C1659      H1666   1.084       .  S
C1660      C1661   1.411       .  A
C1661      C1662   1.402       .  A
C1661      C1668   1.516       .  S
C1662      C1663   1.407       .  A
C1662      H1667   1.084       .  S
C1663      C1664   1.415       .  A
C1664      C1665   1.517       .  S
C1665      F1669   1.385       .  S
C1665      F1670   1.383       .  S
C1665      F1671   1.384       .  S
C1668      F1672   1.384       .  S
C1668      F1673   1.382       .  S
C1668      F1674   1.385       .  S
C1675      C1676   1.412       .  A
C1675      C1680   1.412       .  A
C1675      H1682   1.082       .  S
C1676      C1677   1.414       .  A
C1677      C1678   1.404       .  A
C1677      C1684   1.520       .  S
C1678      C1679   1.410       .  A
C1678      H1683   1.082       .  S
C1679      C1680   1.414       .  A
C1680      C1681   1.517       .  S
C1681      F1685   1.384       .  S
C1681      F1686   1.382       .  S
C1681      F1687   1.384       .  S
C1684      F1688   1.383       .  S
C1684      F1689   1.383       .  S
C1684      F1690   1.385       .  S
C1691      C1692   1.406       .  A
C1691      C1696   1.407       .  A
C1691      H1698   1.085       .  S
C1692      C1693   1.414       .  A
C1693      C1694   1.410       .  A
C1693      C1700   1.516       .  S
C1694      C1695   1.405       .  A
C1694      H1699   1.084       .  S
C1695      C1696   1.412       .  A
C1696      C1697   1.515       .  S
C1697      F1701   1.385       .  S
C1697      F1702   1.379       .  S
C1697      F1703   1.383       .  S
C1700      F1704   1.384       .  S
C1700      F1705   1.382       .  S
C1700      F1706   1.385       .  S
C1707      C1708   1.399       .  A
C1707      C1712   1.409       .  A
C1707      H1714   1.084       .  S
C1708      C1709   1.420       .  A
C1709      C1710   1.411       .  A
C1709      C1716   1.519       .  S
C1710      C1711   1.402       .  A
C1710      H1715   1.083       .  S
C1711      C1712   1.422       .  A
C1712      C1713   1.518       .  S
C1713      F1717   1.385       .  S
C1713      F1718   1.384       .  S
C1713      F1719   1.381       .  S
C1716      F1720   1.382       .  S
C1716      F1721   1.383       .  S
C1716      F1722   1.385       .  S
C1723      C1724   1.401       .  A
C1723      C1728   1.408       .  A
C1723      H1730   1.084       .  S
C1724      C1725   1.418       .  A
C1725      C1726   1.406       .  A
C1725      C1732   1.515       .  S
C1726      C1727   1.397       .  A
C1726      H1731   1.084       .  S
C1727      C1728   1.420       .  A
C1728      C1729   1.520       .  S
C1729      F1733   1.385       .  S
C1729      F1734   1.383       .  S
C1729      F1735   1.382       .  S
C1732      F1736   1.377       .  S
C1732      F1737   1.383       .  S
C1732      F1738   1.385       .  S
C1739      C1740   1.409       .  A
C1739      C1744   1.403       .  A
C1739      H1746   1.082       .  S
C1740      C1741   1.412       .  A
C1741      C1742   1.400       .  A
C1741      C1748   1.521       .  S
C1742      C1743   1.411       .  A
C1742      H1747   1.080       .  S
C1743      C1744   1.415       .  A
C1744      C1745   1.518       .  S
C1745      F1749   1.385       .  S
C1745      F1750   1.382       .  S
C1745      F1751   1.383       .  S
C1748      F1752   1.384       .  S
C1748      F1753   1.383       .  S
C1748      F1754   1.384       .  S
C1755      C1756   1.409       .  A
C1755      C1760   1.408       .  A
C1755      H1762   1.084       .  S
C1756      C1757   1.411       .  A
C1757      C1758   1.403       .  A
C1757      C1764   1.519       .  S
C1758      C1759   1.410       .  A
C1758      H1763   1.083       .  S
C1759      C1760   1.416       .  A
C1760      C1761   1.518       .  S
C1761      F1765   1.385       .  S
C1761      F1766   1.383       .  S
C1761      F1767   1.383       .  S
C1764      F1768   1.382       .  S
C1764      F1769   1.383       .  S
C1764      F1770   1.384       .  S
C1771      C1772   1.406       .  A
C1771      C1776   1.405       .  A
C1771      H1778   1.082       .  S
C1772      C1773   1.416       .  A
C1773      C1774   1.414       .  A
C1773      C1780   1.517       .  S
C1774      C1775   1.409       .  A
C1774      H1779   1.082       .  S
C1775      C1776   1.411       .  A
C1776      C1777   1.512       .  S
C1777      F1781   1.385       .  S
C1777      F1782   1.379       .  S
C1777      F1783   1.384       .  S
C1780      F1784   1.383       .  S
C1780      F1785   1.383       .  S
C1780      F1786   1.385       .  S
C1787      C1788   1.412       .  A
C1787      C1792   1.415       .  A
C1787      H1794   1.082       .  S
C1788      C1789   1.414       .  A
C1789      C1790   1.408       .  A
C1789      C1796   1.519       .  S
C1790      C1791   1.412       .  A
C1790      H1795   1.082       .  S
C1791      C1792   1.417       .  A
C1792      C1793   1.516       .  S
C1793      F1797   1.385       .  S
C1793      F1798   1.380       .  S
C1793      F1799   1.383       .  S
C1796      F1800   1.384       .  S
C1796      F1801   1.382       .  S
C1796      F1802   1.385       .  S
C1803      C1804   1.412       .  A
C1803      C1808   1.415       .  A
C1803      H1810   1.082       .  S
C1804      C1805   1.412       .  A
C1805      C1806   1.405       .  A
C1805      C1812   1.513       .  S
C1806      C1807   1.409       .  A
C1806      H1811   1.083       .  S
C1807      C1808   1.416       .  A
C1808      C1809   1.516       .  S
C1809      F1813   1.384       .  S
C1809      F1814   1.383       .  S
C1809      F1815   1.383       .  S
C1812      F1816   1.384       .  S
C1812      F1817   1.382       .  S
C1812      F1818   1.385       .  S
C1819      C1820   1.408       .  A
C1819      C1824   1.401       .  A
C1819      H1826   1.082       .  S
C1820      C1821   1.407       .  A
C1821      C1822   1.406       .  A
C1821      C1828   1.516       .  S
C1822      C1823   1.412       .  A
C1822      H1827   1.070       .  S
C1823      C1824   1.414       .  A
C1824      C1825   1.520       .  S
C1825      F1829   1.385       .  S
C1825      F1830   1.383       .  S
C1825      F1831   1.383       .  S
C1828      F1832   1.381       .  S
C1828      F1833   1.384       .  S
C1828      F1834   1.385       .  S
C1835      C1836   1.407       .  A
C1835      C1840   1.399       .  A
C1835      H1842   1.083       .  S
C1836      C1837   1.410       .  A
C1837      C1838   1.409       .  A
C1837      C1844   1.516       .  S
C1838      C1839   1.412       .  A
C1838      H1843   1.083       .  S
C1839      C1840   1.418       .  A
C1840      C1841   1.523       .  S
C1841      F1845   1.385       .  S
C1841      F1846   1.384       .  S
C1841      F1847   1.383       .  S
C1844      F1848   1.383       .  S
C1844      F1849   1.383       .  S
C1844      F1850   1.384       .  S
C1851      C1852   1.405       .  A
C1851      C1856   1.405       .  A
C1851      H1858   1.084       .  S
C1852      C1853   1.415       .  A
C1853      C1854   1.410       .  A
C1853      C1860   1.517       .  S
C1854      C1855   1.406       .  A
C1854      H1859   1.084       .  S
C1855      C1856   1.411       .  A
C1856      C1857   1.512       .  S
C1857      F1861   1.384       .  S
C1857      F1862   1.383       .  S
C1857      F1863   1.379       .  S
C1860      F1864   1.382       .  S
C1860      F1865   1.384       .  S
C1860      F1866   1.384       .  S
C1867      C1868   1.411       .  A
C1867      C1872   1.406       .  A
C1867      H1874   1.082       .  S
C1868      C1869   1.415       .  A
C1869      C1870   1.412       .  A
C1869      C1876   1.517       .  S
C1870      C1871   1.410       .  A
C1870      H1875   1.082       .  S
C1871      C1872   1.412       .  A
C1872      C1873   1.519       .  S
C1873      F1877   1.384       .  S
C1873      F1878   1.383       .  S
C1873      F1879   1.382       .  S
C1876      F1880   1.382       .  S
C1876      F1881   1.383       .  S
C1876      F1882   1.385       .  S
C1883      C1884   1.409       .  A
C1883      C1888   1.415       .  A
C1883      H1890   1.082       .  S
C1884      C1885   1.413       .  A
C1885      C1886   1.406       .  A
C1885      C1892   1.514       .  S
C1886      C1887   1.408       .  A
C1886      H1891   1.082       .  S
C1887      C1888   1.417       .  A
C1888      C1889   1.516       .  S
C1889      F1893   1.385       .  S
C1889      F1894   1.384       .  S
C1889      F1895   1.382       .  S
C1892      F1896   1.382       .  S
C1892      F1897   1.384       .  S
C1892      F1898   1.384       .  S
C1899      C1900   1.411       .  A
C1899      C1904   1.409       .  A
C1899      H1906   1.084       .  S
C1900      C1901   1.418       .  A
C1901      C1902   1.406       .  A
C1901      C1908   1.520       .  S
C1902      C1903   1.405       .  A
C1902      H1907   1.084       .  S
C1903      C1904   1.411       .  A
C1904      C1905   1.518       .  S
C1905      F1909   1.384       .  S
C1905      F1910   1.383       .  S
C1905      F1911   1.384       .  S
C1908      F1912   1.384       .  S
C1908      F1913   1.382       .  S
C1908      F1914   1.385       .  S
C1915      C1916   1.405       .  A
C1915      C1920   1.402       .  A
C1915      H1922   1.084       .  S
C1916      C1917   1.408       .  A
C1917      C1918   1.406       .  A
C1917      C1924   1.516       .  S
C1918      C1919   1.409       .  A
C1918      H1923   1.084       .  S
C1919      C1920   1.413       .  A
C1920      C1921   1.519       .  S
C1921      F1925   1.385       .  S
C1921      F1926   1.382       .  S
C1921      F1927   1.384       .  S
C1924      F1928   1.383       .  S
C1924      F1929   1.383       .  S
C1924      F1930   1.385       .  S
C1931      C1932   1.409       .  A
C1931      C1936   1.415       .  A
C1931      H1938   1.083       .  S
C1932      C1933   1.415       .  A
C1933      C1934   1.409       .  A
C1933      C1940   1.519       .  S
C1934      C1935   1.411       .  A
C1934      H1939   1.082       .  S
C1935      C1936   1.420       .  A
C1936      C1937   1.518       .  S
C1937      F1941   1.384       .  S
C1937      F1942   1.382       .  S
C1937      F1943   1.384       .  S
C1940      F1944   1.384       .  S
C1940      F1945   1.382       .  S
C1940      F1946   1.380       .  S
C1947      C1948   1.406       .  A
C1947      C1952   1.408       .  A
C1947      H1954   1.082       .  S
C1948      C1949   1.412       .  A
C1949      C1950   1.407       .  A
C1949      C1956   1.518       .  S
C1950      C1951   1.408       .  A
C1950      H1955   1.083       .  S
C1951      C1952   1.416       .  A
C1952      C1953   1.518       .  S
C1953      F1957   1.385       .  S
C1953      F1958   1.384       .  S
C1953      F1959   1.383       .  S
C1956      F1960   1.383       .  S
C1956      F1961   1.384       .  S
C1956      F1962   1.384       .  S
