geometry optimzed in LAMMPS
_audit_creation_date              2020-11-30 
_audit_creation_method            'lammps2cif' 
_symmetry_space_group_name_H-M    'P1' 
_symmetry_Int_Tables_number       1 
_symmetry_cell_setting            triclinic 
loop_ 
_symmetry_equiv_pos_as_xyz 
  x,y,z 
_cell_length_a                    33.98371762 
_cell_length_b                    30.674236099979762 
_cell_length_c                    67.65345312073966 
_cell_angle_alpha                 90.48246455828539 
_cell_angle_beta                  89.98504312624087 
_cell_angle_gamma                 90.59896850347576 
loop_ 
_atom_site_label 
_atom_site_type_symbol 
_atom_site_fract_x 
_atom_site_fract_y 
_atom_site_fract_z 
_atom_site_charge 
In1        In  0.37962676  0.37971715  0.24991553     1.36900
C2          C  0.32660594  0.41823884  0.22689158     0.78200
O3          O  0.42098003  0.37564320  0.22435365    -0.60200
O4          O  0.41769944  0.32080484  0.24311533    -0.51200
C5          C  0.42691356  0.42786540  0.27255088     0.70900
O6          O  0.41206827  0.44291544  0.25698060    -0.46000
C7          C  0.33201183  0.33541338  0.27383650     0.75600
O8          O  0.33996907  0.43641057  0.24228309    -0.57900
O9          O  0.34472915  0.31917464  0.25792200    -0.48000
O10         O  0.33954828  0.38043472  0.22379762    -0.54300
C11         C  0.43213775  0.33733163  0.22771161     0.85800
O12         O  0.41897959  0.38835009  0.27574322    -0.56200
O13         O  0.34272241  0.37423669  0.27702181    -0.59500
N14         N  0.99314860  0.51856861  0.70799596    -0.36000
N15         N  0.43488958  0.49801142  0.67769548    -0.56500
N16         N  0.47172020  0.04562128  0.64872074    -0.36000
N17         N  0.03023961  0.06910211  0.67701306    -0.56500
C18         C  0.46473796  0.49937893  0.71906716     0.27600
C19         C  0.01402044  0.03849414  0.71824827     0.27600
C20         C  0.43635678  0.04170141  0.63986872     0.27600
C21         C  0.49140664  0.07764955  0.63929375     0.27600
C22         C  0.42114819  0.47134694  0.69195005     0.36200
C23         C  0.41310565  0.48936704  0.66134729     0.36200
C24         C  0.05696936  0.06850923  0.69168351     0.36200
C25         C  0.05009875  0.07894931  0.66027095     0.36200
C26         C  0.97047635  0.51101323  0.73876103    -0.21300
C27         C  0.00257707  0.53889386  0.73945532    -0.21300
C28         C  0.43315349  0.07198326  0.62488194    -0.21300
C29         C  0.46795223  0.09495241  0.62461287    -0.21300
C30         C  0.38914133  0.44750612  0.68474584    -0.22300
C31         C  0.38458330  0.45827491  0.66530290    -0.22300
C32         C  0.09413925  0.07799475  0.68420921    -0.22300
C33         C  0.08976361  0.08371444  0.66414434    -0.22300
C34         C  0.43495626  0.47053699  0.71175446    -0.17700
C35         C  0.04756221  0.06298859  0.71186963    -0.17700
C36         C  0.03147754  0.08760275  0.64217401    -0.17700
C37         C  0.41649948  0.51169063  0.64334222    -0.17700
H38         H  0.95318945  0.50146402  0.75143181     0.15200
H39         H  0.01450210  0.55408723  0.75267141     0.15200
H40         H  0.40880358  0.07617374  0.61479381     0.15200
H41         H  0.47548513  0.12065218  0.61442917     0.15200
H42         H  0.36940225  0.42648733  0.69284012     0.13500
H43         H  0.36172372  0.44615480  0.65549610     0.13500
H44         H  0.12154117  0.07995642  0.69233851     0.13500
H45         H  0.11287251  0.09025318  0.65356972     0.13500
H46         H  0.99398143  0.00807951  0.69141789     0.26800
H47         H  0.48402777  0.02309961  0.65824499     0.26800
C48         C  0.23182175  0.02084839  0.51782619     0.02900
C49         C  0.26422257  0.49831964  0.51827719     0.02900
C50         C  0.27748226  0.48093138  0.50026395    -0.17600
C51         C  0.25706422  0.48880520  0.48268354     0.02900
C52         C  0.22316766  0.51493923  0.48305815     0.02900
C53         C  0.21234364  0.03290000  0.50041976    -0.17600
H54         H  0.18627344  0.05287933  0.50134671     0.04900
H55         H  0.30386990  0.46137558  0.49991688     0.04900
N56         N  0.50651806  0.00641602  0.29312997    -0.36000
N57         N  0.06332925  0.03590084  0.32253222    -0.56500
N58         N  0.01920404  0.48111615  0.35137180    -0.36000
N59         N  0.46688682  0.44895558  0.32165154    -0.56500
C60         C  0.03513161  0.02364167  0.28150803     0.27600
C61         C  0.48318459  0.47892606  0.28073546     0.27600
C62         C  0.05264618  0.49161848  0.36106423     0.27600
C63         C  0.00450437  0.44480746  0.35986230     0.27600
C64         C  0.06935858  0.06487724  0.30795475     0.36200
C65         C  0.07535788  0.05569329  0.33941476     0.36200
C66         C  0.44025369  0.44838569  0.30695598     0.36200
C67         C  0.44781234  0.43506532  0.33799231     0.36200
C68         C  0.53147806  0.00660421  0.26253606    -0.21300
C69         C  0.49989099  0.97790305  0.26279363    -0.21300
C70         C  0.05965098  0.46144589  0.37576116    -0.21300
C71         C  0.02927772  0.43156606  0.37487185    -0.21300
C72         C  0.08490942  0.10342195  0.31565046    -0.22300
C73         C  0.08816673  0.09764358  0.33573834    -0.22300
C74         C  0.40389886  0.43446837  0.31404813    -0.22300
C75         C  0.40870923  0.42662391  0.33388835    -0.22300
C76         C  0.06322436  0.05538856  0.28774523    -0.17700
C77         C  0.45004862  0.45406073  0.28689944    -0.17700
C78         C  0.46676854  0.42738976  0.35603235    -0.17700
C79         C  0.07808191  0.03417440  0.35758369    -0.17700
H80         H  0.54980855  0.01358681  0.24985289     0.15200
H81         H  0.48939545  0.95874065  0.25033471     0.15200
H82         H  0.08367760  0.46146691  0.38624399     0.15200
H83         H  0.02520783  0.40393381  0.38447575     0.15200
H84         H  0.09223408  0.13284338  0.30768298     0.13500
H85         H  0.09794372  0.12148275  0.34654099     0.13500
H86         H  0.37688199  0.43027327  0.30574933     0.13500
H87         H  0.38615645  0.41674043  0.34420190     0.13500
H88         H  0.99685931  0.51579641  0.30682053     0.26800
H89         H  0.00438776  0.50128189  0.34160968     0.26800
C90         C  0.47852752  0.25202530  0.51382189     0.02900
C91         C  0.01256766  0.22573978  0.51358953     0.02900
C92         C  0.03223228  0.21799126  0.49570123    -0.17600
C93         C  0.01890541  0.23628594  0.47802916     0.02900
C94         C  0.98497649  0.26256621  0.47826978     0.02900
C95         C  0.46524372  0.27037752  0.49614103    -0.17600
H96         H  0.43972364  0.29129949  0.49633090     0.04900
H97         H  0.05778136  0.19711908  0.49548145     0.04900
N98         N  0.27136107  0.20910403  0.64808429    -0.36000
N99         N  0.21499259  0.18810375  0.67757578    -0.56500
N100        N  0.25389740  0.24794290  0.70592956    -0.36000
N101        N  0.31397967  0.26453035  0.67625049    -0.56500
C102        C  0.25177331  0.17584065  0.63912062     0.27600
C103        C  0.30654696  0.21300607  0.63902923     0.27600
C104        C  0.23210066  0.22262771  0.71823817     0.27600
C105        C  0.28176478  0.26877072  0.71691703     0.27600
C106        C  0.19471978  0.17487405  0.66137936     0.36200
C107        C  0.18884233  0.18968136  0.69249726     0.36200
C108        C  0.33391763  0.27369456  0.65942201     0.36200
C109        C  0.32333432  0.29650633  0.68937183     0.36200
C110        C  0.27472079  0.15861524  0.62405369    -0.21300
C111        C  0.30939462  0.18199738  0.62405688    -0.21300
C112        C  0.24607652  0.22785121  0.73738514    -0.21300
C113        C  0.27714708  0.25730839  0.73657973    -0.21300
C114        C  0.15539748  0.16919775  0.66583420    -0.22300
C115        C  0.15164851  0.17793186  0.68569788    -0.22300
C116        C  0.35627892  0.31125226  0.66184017    -0.22300
C117        C  0.34945397  0.32578590  0.68074273    -0.22300
C118        C  0.21270823  0.16303819  0.64345669    -0.17700
C119        C  0.33368774  0.24735774  0.64222735    -0.17700
C120        C  0.31127040  0.29744517  0.70947037    -0.17700
C121        C  0.19916398  0.19648706  0.71247649    -0.17700
H122        H  0.26714843  0.13260761  0.61380188     0.15200
H123        H  0.33346129  0.17752735  0.61378258     0.15200
H124        H  0.23513154  0.21216345  0.75058276     0.15200
H125        H  0.29492680  0.26812500  0.74899028     0.15200
H126        H  0.13205718  0.16012979  0.65575342     0.13500
H127        H  0.12470958  0.17590805  0.69418855     0.13500
H128        H  0.37570382  0.32639455  0.65116709     0.13500
H129        H  0.36285716  0.35428366  0.68738990     0.13500
H130        H  0.25935624  0.23163389  0.65788992     0.26800
H131        H  0.24825205  0.25339067  0.69104255     0.26800
N132        N  0.25434049  0.25708236  0.29249160    -0.36000
N133        N  0.28939707  0.31392470  0.32303942    -0.56500
N134        N  0.23742244  0.27816717  0.35233722    -0.36000
N135        N  0.19848829  0.22637941  0.32194261    -0.56500
C136        C  0.27484993  0.28588133  0.28138743     0.27600
C137        C  0.22626041  0.23863658  0.28082841     0.27600
C138        C  0.25219926  0.31323751  0.36209403     0.27600
C139        C  0.20378363  0.26648083  0.36154892     0.27600
C140        C  0.31621505  0.31684402  0.30840975     0.36200
C141        C  0.30797797  0.32679530  0.33981185     0.36200
C142        C  0.19282110  0.19711638  0.30718914     0.36200
C143        C  0.18485637  0.20731241  0.33856069     0.36200
C144        C  0.25999006  0.28533708  0.26227181    -0.21300
C145        C  0.22929904  0.25543914  0.26191971    -0.21300
C146        C  0.22783190  0.32381311  0.37783742    -0.21300
C147        C  0.19725687  0.29414894  0.37753268    -0.21300
C148        C  0.35213322  0.33101474  0.31600803    -0.22300
C149        C  0.34685689  0.33687597  0.33601459    -0.22300
C150        C  0.17624123  0.15907154  0.31456534    -0.22300
C151        C  0.17132696  0.16564852  0.33451694    -0.22300
C152        C  0.30736249  0.31118442  0.28813786    -0.17700
C153        C  0.19910649  0.20616093  0.28700043    -0.17700
C154        C  0.18115777  0.22909545  0.35680244    -0.17700
C155        C  0.28874605  0.33332929  0.35797295    -0.17700
H156        H  0.26991518  0.30464274  0.24988360     0.15200
H157        H  0.21115362  0.24742455  0.24923512     0.15200
H158        H  0.23203614  0.34955402  0.38869567     0.15200
H159        H  0.17354147  0.29263990  0.38818438     0.15200
H160        H  0.37926337  0.33644137  0.30797226     0.13500
H161        H  0.36896989  0.34660942  0.34667905     0.13500
H162        H  0.16887515  0.12956401  0.30645306     0.13500
H163        H  0.16027923  0.14228791  0.34502440     0.13500
H164        H  0.26133827  0.24785513  0.30683050     0.26800
H165        H  0.25183802  0.26002419  0.34152043     0.26800
C166        C  0.49124333  0.46236268  0.01587768     0.02900
C167        C  0.02836881  0.48354745  0.01588326     0.02900
C168        C  0.03427884  0.02399101  0.00000222    -0.17600
C169        C  0.51162105  0.01998534  0.98275537     0.02900
C170        C  0.48414880  0.47691920  0.98068249     0.02900
C171        C  0.46900760  0.46067239  0.99849772    -0.17600
H172        H  0.43927635  0.44762363  0.99902411     0.04900
H173        H  0.06371632  0.03777765  0.99919376     0.04900
N174        N  0.25981053  0.01634942  0.85058849    -0.36000
N175        N  0.31399944  0.47794311  0.81942233    -0.56500
N176        N  0.25611196  0.51093887  0.79149676    -0.36000
N177        N  0.20266866  0.04329142  0.82282331    -0.56500
C178        C  0.28708897  0.99430104  0.86072461     0.27600
C179        C  0.22809631  0.02007683  0.86241339     0.27600
C180        C  0.27742641  0.48489353  0.77919928     0.27600
C181        C  0.22588135  0.02905039  0.78059898     0.27600
C182        C  0.34137928  0.48295268  0.83374804     0.36200
C183        C  0.33337699  0.47413094  0.80220996     0.36200
C184        C  0.18514305  0.05865298  0.83943533     0.36200
C185        C  0.18544593  0.06344093  0.80748250     0.36200
C186        C  0.27242598  0.98241741  0.87898628    -0.21300
C187        C  0.23506862  0.99876679  0.88010720    -0.21300
C188        C  0.25848522  0.48303648  0.76098810    -0.21300
C189        C  0.22560881  0.50899614  0.76235458    -0.21300
C190        C  0.37877230  0.48229559  0.82570928    -0.22300
C191        C  0.37372784  0.47602052  0.80563771    -0.22300
C192        C  0.15487087  0.08619702  0.83468286    -0.22300
C193        C  0.15483955  0.08910831  0.81446425    -0.22300
C194        C  0.33160654  0.48505498  0.85391830    -0.17700
C195        C  0.19752693  0.04960228  0.85886412    -0.17700
C196        C  0.19582733  0.05785492  0.78725940    -0.17700
C197        C  0.31465978  0.46585548  0.78384107    -0.17700
H198        H  0.28810161  0.96639859  0.89076039     0.15200
H199        H  0.21646974  0.99660120  0.89298217     0.15200
H200        H  0.26735427  0.46629663  0.74766415     0.15200
H201        H  0.20495530  0.51455771  0.75051977     0.15200
H202        H  0.40656047  0.48511934  0.83344075     0.13500
H203        H  0.39706111  0.47391727  0.79479059     0.13500
H204        H  0.13523962  0.10249983  0.84481129     0.13500
H205        H  0.13415457  0.10757835  0.80595506     0.13500
H206        H  0.26601999  0.03576207  0.83840350     0.26800
H207        H  0.26440207  0.52202016  0.80542715     0.26800
N208        N  0.45283201  0.20518923  0.84416776    -0.36000
N209        N  0.01676621  0.18194560  0.81933285    -0.56500
N210        N  0.99043636  0.24750544  0.79068929    -0.36000
N211        N  0.42359582  0.26681499  0.81674293    -0.56500
C212        C  0.46669131  0.16934568  0.85303992     0.27600
C213        C  0.41637410  0.21199459  0.85124651     0.27600
C214        C  0.01409257  0.22199349  0.77942273     0.27600
C215        C  0.46584100  0.26894242  0.77844892     0.27600
C216        C  0.03104791  0.16940279  0.83703498     0.36200
C217        C  0.04797794  0.18680132  0.80726130     0.36200
C218        C  0.40324172  0.27904880  0.83300459     0.36200
C219        C  0.42235725  0.30056814  0.80419139     0.36200
C220        C  0.43801496  0.15174596  0.86529335    -0.21300
C221        C  0.40616677  0.17904996  0.86427748    -0.21300
C222        C  0.00450364  0.22760189  0.75965627    -0.21300
C223        C  0.97426688  0.25747995  0.75905230    -0.21300
C224        C  0.07160101  0.16677384  0.83633396    -0.22300
C225        C  0.08237946  0.17738264  0.81730268    -0.22300
C226        C  0.38867386  0.32065210  0.83081481    -0.22300
C227        C  0.40067619  0.33431330  0.81243909    -0.22300
C228        C  0.00688613  0.15883744  0.85328814    -0.17700
C229        C  0.39654719  0.25170709  0.84926568    -0.17700
C230        C  0.43661896  0.29893711  0.78461837    -0.17700
C231        C  0.04482585  0.19553963  0.78688564    -0.17700
H232        H  0.44095232  0.12424290  0.87508156     0.15200
H233        H  0.37970527  0.17665383  0.87312353     0.15200
H234        H  0.01757565  0.21184274  0.74693357     0.15200
H235        H  0.95978802  0.26893641  0.74585875     0.15200
H236        H  0.09113594  0.15860765  0.84831507     0.13500
H237        H  0.11207244  0.17906302  0.81157624     0.13500
H238        H  0.37089923  0.33887222  0.84120696     0.13500
H239        H  0.39403819  0.36539756  0.80585891     0.13500
H240        H  0.47023065  0.22850364  0.83712053     0.26800
H241        H  0.49287944  0.25258479  0.80588400     0.26800
In242      In  0.13135078  0.12911506  0.24915950     1.36900
C243        C  0.08786953  0.07923474  0.27314209     0.78200
O244        O  0.13480117  0.08137289  0.22373587    -0.60200
O245        O  0.18474615  0.08676816  0.24204893    -0.51200
C246        C  0.09146869  0.18617936  0.22682236     0.70900
O247        O  0.07721711  0.16974312  0.24224970    -0.46000
C248        C  0.17481075  0.18140240  0.27240416     0.75600
O249        O  0.07548312  0.09166229  0.25658648    -0.57900
O250        O  0.18768100  0.16684018  0.25618822    -0.48000
O251        O  0.12300346  0.09016273  0.27672830    -0.54300
C252        C  0.16968833  0.06962290  0.22682589     0.85800
O253        O  0.12660429  0.17531644  0.22356779    -0.56200
O254        O  0.13946491  0.17138445  0.27586579    -0.59500
N255        N  0.24666615  0.99004380  0.20825294    -0.36000
N256        N  0.18657854  0.01120158  0.17915336    -0.56500
N257        N  0.22008236  0.45645543  0.15076965    -0.36000
N258        N  0.27756802  0.42948474  0.17882224    -0.56500
C259        C  0.21920954  0.00969046  0.21972641     0.27600
C260        C  0.26735422  0.46503703  0.21950430     0.27600
C261        C  0.18568327  0.46506551  0.14181907     0.27600
C262        C  0.23533119  0.42132034  0.14158882     0.27600
C263        C  0.18251053  0.04381413  0.19249940     0.36200
C264        C  0.17084376  0.02565739  0.16207109     0.36200
C265        C  0.30620613  0.43109222  0.19254835     0.36200
C266        C  0.29477842  0.41599850  0.16187731     0.36200
C267        C  0.22399136  0.99650447  0.23913136    -0.21300
C268        C  0.25519448  0.96777737  0.23929479    -0.21300
C269        C  0.17857109  0.43455392  0.12692935    -0.21300
C270        C  0.21004854  0.40681094  0.12680526    -0.21300
C271        C  0.16484920  0.07921729  0.18373368    -0.22300
C272        C  0.15661554  0.06738405  0.16454348    -0.22300
C273        C  0.34182205  0.41871276  0.18424565    -0.22300
C274        C  0.33449617  0.40960161  0.16465820    -0.22300
C275        C  0.19133060  0.04031084  0.21284824    -0.17700
C276        C  0.29949288  0.43946409  0.21278379    -0.17700
C277        C  0.27397328  0.40678114  0.14442173    -0.17700
C278        C  0.16764140  0.00040350  0.14465041    -0.17700
H279        H  0.20670483  0.00623830  0.25182407     0.15200
H280        H  0.26651463  0.95133972  0.25215599     0.15200
H281        H  0.15427244  0.43353964  0.11659953     0.15200
H282        H  0.21464010  0.38027262  0.11644644     0.15200
H283        H  0.15957592  0.11061706  0.19044249     0.13500
H284        H  0.14251653  0.08731486  0.15357191     0.13500
H285        H  0.37012265  0.41689171  0.19150912     0.13500
H286        H  0.35573467  0.40011792  0.15360258     0.13500
H287        H  0.24985329  0.49715392  0.19302363     0.26800
H288        H  0.23535343  0.47769079  0.16016084     0.26800
C289        C  0.23994871  0.21646034  0.98220784     0.02900
C290        C  0.27309616  0.24453990  0.98148020     0.02900
C291        C  0.28709564  0.26436921  0.99889412    -0.17600
C292        C  0.26806383  0.25700210  0.01695738     0.02900
C293        C  0.23465782  0.22916300  0.01757554     0.02900
C294        C  0.22100695  0.20900564  0.00024043    -0.17600
H295        H  0.19546487  0.18755702  0.00077198     0.04900
H296        H  0.31217478  0.28645434  0.99829715     0.04900
In297      In  0.12389668  0.12944714  0.75022867     1.36900
C298        C  0.07297412  0.17292056  0.77344758     0.78200
O299        O  0.08630548  0.12431023  0.72311081    -0.60200
O300        O  0.08560277  0.07027700  0.74227270    -0.51200
C301        C  0.17479755  0.17264299  0.72719114     0.70900
O302        O  0.16103500  0.18951337  0.74275107    -0.46000
C303        C  0.17276478  0.08329804  0.77271869     0.75600
O304        O  0.08523544  0.18799301  0.75729466    -0.57900
O305        O  0.15345565  0.06627081  0.75870356    -0.48000
O306        O  0.08674028  0.13612343  0.77748394    -0.54300
C307        C  0.07347920  0.08634619  0.72633310     0.85800
O308        O  0.16407012  0.13367027  0.72421821    -0.56200
O309        O  0.16861706  0.12398416  0.77441883    -0.59500
In310      In  0.37587633  0.38028706  0.74694419     1.36900
C311        C  0.41618928  0.32676344  0.77017032     0.78200
O312        O  0.36321298  0.41157572  0.77595451    -0.60200
O313        O  0.32682616  0.42896815  0.75202137    -0.51200
C314        C  0.41627656  0.43809350  0.72511982     0.70900
O315        O  0.40432870  0.44673947  0.74224194    -0.46000
C316        C  0.33340391  0.32682388  0.72332997     0.75600
O317        O  0.43339549  0.35262533  0.75855262    -0.57900
O318        O  0.31755030  0.35004980  0.73654767    -0.48000
O319        O  0.37922659  0.32808505  0.76950356    -0.54300
C320        C  0.33527127  0.43497931  0.77006117     0.85800
O321        O  0.40945175  0.39938387  0.71975205    -0.56200
O322        O  0.37019272  0.33118918  0.72244033    -0.59500
N323        N  0.51217238  0.26232031  0.20819682    -0.36000
N324        N  0.47344306  0.31654180  0.17837454    -0.56500
N325        N  0.02702213  0.28556983  0.14877305    -0.36000
N326        N  0.06981878  0.23700895  0.17823684    -0.56500
C327        C  0.49046559  0.28901358  0.21987377     0.27600
C328        C  0.04021032  0.24384362  0.21956984     0.27600
C329        C  0.00839292  0.31728677  0.13887025     0.27600
C330        C  0.06057608  0.27699697  0.13888963     0.27600
C331        C  0.44739074  0.31754693  0.19337741     0.36200
C332        C  0.45292336  0.32598204  0.16186237     0.36200
C333        C  0.07606431  0.20696585  0.19233370     0.36200
C334        C  0.08494118  0.22029770  0.16131840     0.36200
C335        C  0.50454937  0.28701508  0.23908906    -0.21300
C336        C  0.53583324  0.25838068  0.23891261    -0.21300
C337        C  0.03036926  0.32916213  0.12245012    -0.21300
C338        C  0.06337715  0.30361589  0.12244460    -0.21300
C339        C  0.41021132  0.32754130  0.18633406    -0.22300
C340        C  0.41376775  0.33236850  0.16625791    -0.22300
C341        C  0.09437065  0.17091495  0.18417868    -0.22300
C342        C  0.10087801  0.17977870  0.16460161    -0.22300
C343        C  0.45746019  0.31338773  0.21349401    -0.17700
C344        C  0.06844714  0.21323999  0.21271752    -0.17700
C345        C  0.08597088  0.24231237  0.14318306    -0.17700
C346        C  0.47010905  0.33188718  0.14319058    -0.17700
H347        H  0.49348485  0.30426197  0.25191846     0.15200
H348        H  0.55348364  0.24967667  0.25156008     0.15200
H349        H  0.02284120  0.35278850  0.11130919     0.15200
H350        H  0.08610893  0.30367991  0.11124104     0.15200
H351        H  0.38330498  0.33050463  0.19477731     0.13500
H352        H  0.39039445  0.33904615  0.15596536     0.13500
H353        H  0.10115662  0.14092457  0.19157078     0.13500
H354        H  0.11472406  0.15856995  0.15388456     0.13500
H355        H  0.00606963  0.25420718  0.19355425     0.26800
H356        H  0.01479784  0.26654862  0.15989477     0.26800
C357        C  0.11384475  0.22838653  0.12760973    -0.11300
C358        C  0.14982281  0.25076021  0.12499702     0.04100
C359        C  0.17108496  0.24495333  0.10752815    -0.11900
C360        C  0.15718274  0.21649331  0.09275089     0.19000
C361        C  0.12289249  0.19158613  0.09600209    -0.08900
C362        C  0.10130492  0.19773868  0.11337732    -0.01900
H363        H  0.19723800  0.26455392  0.10496961     0.05500
C364        C  0.17560972  0.21777259  0.07310730     0.21000
H365        H  0.07356247  0.18055597  0.11527166     0.10700
C366        C  0.20627587  0.18929066  0.06848801    -0.15300
C367        C  0.22475884  0.19124106  0.05003555     0.03700
C368        C  0.21278981  0.22234661  0.03615461    -0.10600
C369        C  0.18109303  0.24961620  0.04053493    -0.00600
C370        C  0.16259700  0.24767107  0.05892377    -0.05800
H371        H  0.21588232  0.16573729  0.07926264     0.06700
H372        H  0.17155620  0.27337153  0.02983403     0.10100
Br373      Br  0.10282131  0.15233259  0.07615976    -0.05500
Br374      Br  0.16895080  0.29250033  0.14405682    -0.02400
Br375      Br  0.26565391  0.15057909  0.04424435     0.00400
Br376      Br  0.12023471  0.28701200  0.06427234    -0.03900
C377        C  0.28099569  0.28126534  0.03483457    -0.11300
C378        C  0.31402998  0.26871948  0.04589371     0.04100
C379        C  0.32146586  0.28840320  0.06429960    -0.11900
C380        C  0.29711298  0.32154960  0.07154469     0.19000
C381        C  0.26517472  0.33542670  0.05994333    -0.08900
C382        C  0.25750518  0.31535695  0.04176636    -0.01900
H383        H  0.34565256  0.27712163  0.07320709     0.05500
C384        C  0.30362351  0.34039427  0.09149085     0.21000
H385        H  0.23223755  0.32543785  0.03325102     0.10700
C386        C  0.31170967  0.38519840  0.09328493    -0.15300
C387        C  0.30604120  0.40687274  0.11127908     0.03700
C388        C  0.29293351  0.38341796  0.12781947    -0.10600
C389        C  0.28959974  0.33789551  0.12667397    -0.00600
C390        C  0.29492914  0.31619108  0.10860688    -0.05800
H391        H  0.31863268  0.40392923  0.08022984     0.06700
H392        H  0.27942307  0.31974119  0.13938999     0.10100
Br393      Br  0.22913706  0.37932521  0.06880865    -0.05500
Br394      Br  0.34914836  0.22448804  0.03665016    -0.02400
Br395      Br  0.31091646  0.46925748  0.11215459     0.00400
Br396      Br  0.28510685  0.25450551  0.10761523    -0.03900
C397        C  0.37429863  0.26727846  0.86667961    -0.11300
C398        C  0.33410074  0.25769383  0.86910224     0.04100
C399        C  0.31701202  0.26121201  0.88788553    -0.11900
C400        C  0.33962145  0.27473036  0.90429545     0.19000
C401        C  0.37913425  0.28765912  0.90138407    -0.08900
C402        C  0.39604008  0.28392788  0.88267740    -0.01900
H403        H  0.28667949  0.25095860  0.88988757     0.05500
C404        C  0.32328728  0.26981206  0.92447528     0.21000
H405        H  0.42708227  0.29131715  0.88086051     0.10700
C406        C  0.34201424  0.24143613  0.93761461    -0.15300
C407        C  0.32708442  0.23442378  0.95657024     0.03700
C408        C  0.29209504  0.25479994  0.96242259    -0.10600
C409        C  0.27347720  0.28345538  0.94945712    -0.00600
C410        C  0.28880654  0.29119825  0.93060549    -0.05800
H411        H  0.36824415  0.22431074  0.93301967     0.06700
H412        H  0.24678188  0.29967562  0.95400487     0.10100
Br413      Br  0.41213763  0.30812414  0.92260384    -0.05500
Br414      Br  0.30282060  0.23633007  0.84749568    -0.02400
Br415      Br  0.35490826  0.19611280  0.97378894     0.00400
Br416      Br  0.26206205  0.33186614  0.91406901    -0.03900
C417        C  0.22568550  0.19323078  0.96437053    -0.11300
C418        C  0.19340273  0.20834945  0.95345167     0.04100
C419        C  0.18163571  0.18615045  0.93625611    -0.11900
C420        C  0.20118283  0.14841527  0.93004093     0.19000
C421        C  0.23382831  0.13371167  0.94085541    -0.08900
C422        C  0.24565819  0.15599388  0.95795959    -0.01900
H423        H  0.15741764  0.19850724  0.92761623     0.05500
C424        C  0.19003357  0.12707464  0.91122417     0.21000
H425        H  0.27090537  0.14464832  0.96614611     0.10700
C426        C  0.20283199  0.14620499  0.89365039    -0.15300
C427        C  0.20197756  0.12266569  0.87591321     0.03700
C428        C  0.18675085  0.07955381  0.87545913    -0.10600
C429        C  0.16931273  0.06278725  0.89265225    -0.00600
C430        C  0.17190880  0.08560563  0.91061310    -0.05800
H431        H  0.21678336  0.17814374  0.89404951     0.06700
H432        H  0.15722032  0.03004572  0.89254798     0.10100
Br433      Br  0.26468498  0.08509127  0.93212395    -0.05500
Br434      Br  0.16548749  0.25977541  0.96116749    -0.02400
Br435      Br  0.22728917  0.14920353  0.85361530     0.00400
Br436      Br  0.15485756  0.05672444  0.93420104    -0.03900
C437        C  0.02328615  0.13899781  0.87151766    -0.11300
C438        C  0.51796670  0.15922702  0.89008495     0.04100
C439        C  0.52649923  0.13672081  0.90729414    -0.11900
C440        C  0.04251374  0.09461829  0.90687004     0.19000
C441        C  0.05037530  0.07545648  0.88809460    -0.08900
C442        C  0.04049608  0.09764856  0.87072112    -0.01900
H443        H  0.51834017  0.15178667  0.92119042     0.05500
C444        C  0.04574329  0.07099368  0.92615361     0.21000
H445        H  0.04502118  0.08190447  0.85651825     0.10700
C446        C  0.53158229  0.02784438  0.92779763    -0.15300
C447        C  0.52651965  0.00839918  0.94627539     0.03700
C448        C  0.52953341  0.03402802  0.96359662    -0.10600
C449        C  0.04692720  0.07557340  0.96220418    -0.00600
C450        C  0.05680198  0.09318002  0.94382281    -0.05800
H451        H  0.52242836  0.00946103  0.91489664     0.06700
H452        H  0.05179676  0.09510200  0.97540532     0.10100
Br453      Br  0.07384669  0.01925841  0.88465019    -0.05500
Br454      Br  0.49770071  0.21723666  0.89312775    -0.02400
Br455      Br  0.53358323  0.42738431  0.94217936     0.00400
Br456      Br  0.08537913  0.14760095  0.94404510    -0.03900
C457        C  0.45753169  0.47983176  0.96327001    -0.11300
C458        C  0.43823863  0.44302873  0.95492638     0.04100
C459        C  0.41901796  0.44672717  0.93673008    -0.11900
C460        C  0.42002798  0.48601991  0.92617780     0.19000
C461        C  0.42907579  0.04554324  0.93659012    -0.08900
C462        C  0.44377471  0.04561943  0.95581418    -0.01900
H463        H  0.40432083  0.41831111  0.93047266     0.05500
C464        C  0.40181681  0.48789974  0.90623991     0.21000
H465        H  0.45808844  0.07491664  0.96142782     0.10700
C466        C  0.36906034  0.03905503  0.90277752    -0.15300
C467        C  0.35130110  0.03848559  0.88430671     0.03700
C468        C  0.36126406  0.49041120  0.86988967    -0.10600
C469        C  0.38898522  0.45782160  0.87333511    -0.00600
C470        C  0.41016908  0.45713968  0.89111474    -0.05800
H471        H  0.36200482  0.06523379  0.91296638     0.06700
H472        H  0.39317314  0.43204763  0.86251813     0.10100
Br473      Br  0.43809077  0.09725575  0.92138536    -0.05500
Br474      Br  0.44019071  0.38609766  0.96649386    -0.02400
Br475      Br  0.32012532  0.08802030  0.87736144     0.00400
Br476      Br  0.45017582  0.41382795  0.89371474    -0.03900
C477        C  0.14219450  0.01468635  0.12822326    -0.11300
C478        C  0.15627056  0.04453244  0.11407661     0.04100
C479        C  0.13595132  0.04963251  0.09628515    -0.11900
C480        C  0.10197215  0.02487741  0.09230453     0.19000
C481        C  0.08093791  0.49849201  0.10905608    -0.08900
C482        C  0.10092841  0.49926473  0.12710563    -0.01900
H483        H  0.14770569  0.07137228  0.08517635     0.05500
C484        C  0.08332512  0.02671225  0.07267879     0.21000
H485        H  0.08892014  0.48121017  0.13945720     0.10700
C486        C  0.10140963  0.48739598  0.05847557    -0.15300
C487        C  0.08576555  0.47894936  0.03969412     0.03700
C488        C  0.04351094  0.01772287  0.03639537    -0.10600
C489        C  0.02720361  0.04220848  0.05195110    -0.00600
C490        C  0.04638985  0.04607942  0.07011242    -0.05800
H491        H  0.12969644  0.47387976  0.06233238     0.06700
H492        H  0.99878503  0.05730688  0.05014158     0.10100
Br493      Br  0.03423377  0.46325613  0.10721044    -0.05500
Br494      Br  0.20472137  0.07621361  0.11768544    -0.02400
Br495      Br  0.11646576  0.44477057  0.02161238     0.00400
Br496      Br  0.02025013  0.07628705  0.09123522    -0.03900
C497        C  0.47516937  0.44243886  0.03409678    -0.11300
C498        C  0.99385420  0.40678691  0.04288121     0.04100
C499        C  0.98103062  0.39169195  0.06113340    -0.11900
C500        C  0.44782994  0.40935282  0.07045055     0.19000
C501        C  0.42812823  0.44405056  0.06132522    -0.08900
C502        C  0.44197727  0.46041496  0.04329260    -0.01900
H503        H  0.99686458  0.36534490  0.06801203     0.05500
C504        C  0.43649256  0.39128365  0.08994416     0.21000
H505        H  0.42720276  0.48766362  0.03655879     0.10700
C506        C  0.44053315  0.41763125  0.10693187    -0.15300
C507        C  0.44665888  0.39872395  0.12546928     0.03700
C508        C  0.44796767  0.35300292  0.12703439    -0.10600
C509        C  0.43737215  0.32711239  0.11070955    -0.00600
C510        C  0.43202691  0.34580860  0.09220403    -0.05800
H511        H  0.94359091  0.45263682  0.10548817     0.06700
H512        H  0.43787175  0.29191095  0.11187234     0.10100
Br513      Br  0.38221414  0.46982577  0.07251844    -0.05500
Br514      Br  0.03512855  0.37527236  0.03005559    -0.02400
Br515      Br  0.95917749  0.43613761  0.14749697     0.00400
Br516      Br  0.42529561  0.30715958  0.06998381    -0.03900
C517        C  0.35986861  0.25854487  0.62548184    -0.11300
C518        C  0.39677813  0.23890866  0.62296479     0.04100
C519        C  0.41692408  0.24359786  0.60504280    -0.11900
C520        C  0.40063051  0.26759331  0.58948144     0.19000
C521        C  0.36404029  0.28805421  0.59230903    -0.08900
C522        C  0.34425075  0.28371605  0.61026314    -0.01900
H523        H  0.44452220  0.22680472  0.60291486     0.05500
C524        C  0.42011771  0.26714532  0.56988308     0.21000
H525        H  0.31548926  0.29818865  0.61202415     0.10700
C526        C  0.40029200  0.24771494  0.55382874    -0.15300
C527        C  0.41817668  0.24417850  0.53529968     0.03700
C528        C  0.45673518  0.26033187  0.53251798    -0.10600
C529        C  0.47638200  0.28045351  0.54849872    -0.00600
C530        C  0.45865911  0.28340168  0.56713537    -0.05800
H531        H  0.37110211  0.23394554  0.55589614     0.06700
H532        H  0.50618732  0.29258241  0.54660669     0.10100
Br533      Br  0.33858284  0.32035794  0.57187771    -0.05500
Br534      Br  0.41893094  0.20253838  0.64291952    -0.02400
Br535      Br  0.38993658  0.21331562  0.51491696     0.00400
Br536      Br  0.48860176  0.30910686  0.58835508    -0.03900
C537        C  0.04067286  0.22746660  0.45940201    -0.11300
C538        C  0.07913156  0.24377810  0.45649919     0.04100
C539        C  0.09849731  0.23601135  0.43861999    -0.11900
C540        C  0.07998471  0.21263747  0.42329047     0.19000
C541        C  0.04161147  0.19614200  0.42611602    -0.08900
C542        C  0.02229429  0.20350109  0.44412401    -0.01900
H543        H  0.12776803  0.24946573  0.43641065     0.05500
C544        C  0.10065335  0.20898495  0.40413909     0.21000
H545        H  0.99273514  0.19079521  0.44617714     0.10700
C546        C  0.13398794  0.18249976  0.40263173    -0.15300
C547        C  0.15928404  0.18586479  0.38635164     0.03700
C548        C  0.15057613  0.21506533  0.37107673    -0.10600
C549        C  0.11561672  0.23885106  0.37185514    -0.00600
C550        C  0.09141967  0.23709414  0.38850661    -0.05800
H551        H  0.14175206  0.16151702  0.41477676     0.06700
H552        H  0.10944514  0.26241032  0.36044722     0.10100
Br553      Br  0.01470688  0.16361855  0.40580529    -0.05500
Br554      Br  0.10548104  0.27952475  0.47585499    -0.02400
Br555      Br  0.20760597  0.15417953  0.38655536     0.00400
Br556      Br  0.05049254  0.27931728  0.39072244    -0.03900
C557        C  0.47221244  0.28535655  0.46026240    -0.11300
C558        C  0.43842457  0.27249789  0.44958740     0.04100
C559        C  0.42938193  0.29314236  0.43177105    -0.11900
C560        C  0.45316652  0.32728934  0.42464044     0.19000
C561        C  0.98715474  0.33968319  0.43542657    -0.08900
C562        C  0.99616649  0.31894435  0.45306311    -0.01900
H563        H  0.40377344  0.28246766  0.42347360     0.05500
C564        C  0.44282081  0.35040990  0.40618648     0.21000
H565        H  0.02255984  0.32847601  0.46105665     0.10700
C566        C  0.43690637  0.39558495  0.40717525    -0.15300
C567        C  0.43946348  0.42096705  0.39018808     0.03700
C568        C  0.44783331  0.40116007  0.37184590    -0.10600
C569        C  0.44775289  0.35546243  0.37040340    -0.00600
C570        C  0.94477659  0.32989661  0.38746591    -0.05800
H571        H  0.43389407  0.41159580  0.42142484     0.06700
H572        H  0.95347002  0.33983384  0.35629008     0.10100
Br573      Br  0.02415215  0.38265366  0.42629503    -0.05500
Br574      Br  0.40480868  0.22603193  0.45842408    -0.02400
Br575      Br  0.43745813  0.48318123  0.39304675     0.00400
Br576      Br  0.94732475  0.26771550  0.38456585    -0.03900
C577        C  0.20456252  0.03115096  0.46370688    -0.11300
C578        C  0.20728823  0.07323303  0.45556369     0.04100
C579        C  0.18802660  0.08228776  0.43774714    -0.11900
C580        C  0.16723650  0.04928664  0.42762134     0.19000
C581        C  0.15640708  0.50187581  0.43885093    -0.08900
C582        C  0.17522499  0.49436572  0.45683266    -0.01900
H583        H  0.18993443  0.11472716  0.43162012     0.05500
C584        C  0.14657320  0.05849804  0.40899606     0.21000
H585        H  0.16943675  0.46427408  0.46461209     0.10700
C586        C  0.16207958  0.53842231  0.39197689    -0.15300
C587        C  0.14072608  0.53653625  0.37430073     0.03700
C588        C  0.10305880  0.05168167  0.37380051    -0.10600
C589        C  0.08461828  0.06412430  0.39150404    -0.00600
C590        C  0.10600236  0.06711497  0.40909023    -0.05800
H591        H  0.19254537  0.52835741  0.39206213     0.06700
H592        H  0.05292636  0.06755750  0.39195417     0.10100
Br593      Br  0.12199306  0.45723801  0.42849139    -0.05500
Br594      Br  0.23898392  0.11817429  0.46760511    -0.02400
Br595      Br  0.16685527  0.51611667  0.35092097     0.00400
Br596      Br  0.07784254  0.07710129  0.43326131    -0.03900
C597        C  0.27117620  0.46931733  0.46397977    -0.11300
C598        C  0.25876244  0.42736984  0.45810368     0.04100
C599        C  0.27009353  0.41086964  0.43972035    -0.11900
C600        C  0.29505675  0.43482880  0.42716302     0.19000
C601        C  0.30746212  0.47697446  0.43308268    -0.08900
C602        C  0.29542023  0.49387504  0.45140190    -0.01900
H603        H  0.25954501  0.37883364  0.43522200     0.05500
C604        C  0.30652686  0.41450767  0.40801988     0.21000
H605        H  0.30488659  0.52632606  0.45584620     0.10700
C606        C  0.29432807  0.43312747  0.39018119    -0.15300
C607        C  0.29418972  0.40851931  0.37263006     0.03700
C608        C  0.30499556  0.36429833  0.37298046    -0.10600
C609        C  0.32166936  0.34746807  0.39023021    -0.00600
C610        C  0.32300409  0.37252482  0.40760248    -0.05800
H611        H  0.28192493  0.46550852  0.39016167     0.06700
H612        H  0.33058388  0.31368104  0.39062544     0.10100
Br613      Br  0.34128247  0.51235636  0.41705926    -0.05500
Br614      Br  0.22624331  0.39146457  0.47465840    -0.02400
Br615      Br  0.27434766  0.43467464  0.34905424     0.00400
Br616      Br  0.34395708  0.34696814  0.43106042    -0.03900
C617        C  0.21711580  0.03678300  0.53722110    -0.11300
C618        C  0.23163000  0.07592305  0.54545681     0.04100
C619        C  0.22002486  0.08869212  0.56439546    -0.11900
C620        C  0.19341561  0.06343523  0.57547131     0.19000
C621        C  0.17810109  0.02453687  0.56711750    -0.08900
C622        C  0.18998858  0.01157292  0.54806071    -0.01900
H623        H  0.23193070  0.11875346  0.57058357     0.05500
C624        C  0.18277976  0.08020924  0.59541215     0.21000
H625        H  0.17852941  0.98142169  0.54178399     0.10700
C626        C  0.16577751  0.12173759  0.59655701    -0.13300
C627        C  0.17099841  0.14810616  0.61334614     0.03700
C628        C  0.19255808  0.13246193  0.62949611    -0.10600
C629        C  0.20363092  0.08853380  0.62962922    -0.00600
C630        C  0.19936177  0.06248849  0.61265905    -0.05800
H631        H  0.15246893  0.13561491  0.58351672     0.06700
H632        H  0.21995641  0.07610622  0.64209498     0.10100
Br633      Br  0.14089267  0.98848759  0.58089767    -0.05500
Br634      Br  0.26695008  0.11346057  0.53129878    -0.02400
Br635      Br  0.15345433  0.20717527  0.61237105     0.00400
Br636      Br  0.22227410  0.00581092  0.61311794    -0.03900
C637        C  0.05216279  0.10944751  0.62556523    -0.11300
C638        C  0.04994829  0.15508747  0.62376490     0.04100
C639        C  0.05084437  0.17407116  0.60500622    -0.11900
C640        C  0.05412857  0.14797144  0.58798143     0.19000
C641        C  0.06127747  0.10314971  0.58992625    -0.08900
C642        C  0.06042152  0.08416019  0.60866680    -0.01900
H643        H  0.04562236  0.20869516  0.60362167     0.05500
C644        C  0.04457337  0.16658743  0.56850418     0.21000
H645        H  0.06177127  0.04899811  0.60979830     0.10700
C646        C  0.07109647  0.19527778  0.55931390    -0.15300
C647        C  0.06194887  0.21385692  0.54103764     0.03700
C648        C  0.02584850  0.20349722  0.53173574    -0.10600
C649        C  0.49990751  0.17402262  0.54076847    -0.00600
C650        C  0.50853615  0.15631849  0.55912754    -0.05800
H651        H  0.09869400  0.20360523  0.56649212     0.06700
H652        H  0.47201466  0.16603009  0.53380101     0.10100
Br653      Br  0.06752096  0.06637409  0.56706919    -0.05500
Br654      Br  0.03816146  0.19143855  0.64612773    -0.02400
Br655      Br  0.09849588  0.25499806  0.53004047     0.00400
Br656      Br  0.46885593  0.12026393  0.57109073    -0.03900
C657        C  0.39023693  0.49949403  0.62670145    -0.11300
C658        C  0.34839642  0.01157430  0.62252977     0.04100
C659        C  0.32980608  0.00345207  0.60446218    -0.11900
C660        C  0.34718656  0.48361683  0.59191795     0.19000
C661        C  0.38201530  0.46056454  0.59546407    -0.08900
C662        C  0.40337818  0.46875529  0.61278197    -0.01900
H663        H  0.30281131  0.02017939  0.60107326     0.05500
C664        C  0.32798318  0.48265116  0.57240426     0.21000
H665        H  0.43100230  0.45223555  0.61510815     0.10700
C666        C  0.34206608  0.51126948  0.55794839    -0.15300
C667        C  0.32224907  0.51574396  0.54002614     0.03700
C668        C  0.28763325  0.49136026  0.53639197    -0.10600
C669        C  0.27395723  0.95815878  0.54882378    -0.00600
C670        C  0.29328083  0.95270670  0.56686723    -0.05800
H671        H  0.36798950  0.53116221  0.56088436     0.06700
H672        H  0.24590238  0.94197711  0.54633738     0.10100
Br673      Br  0.40245739  0.41955067  0.57664875    -0.05500
Br674      Br  0.32416485  0.05064575  0.64104085    -0.02400
Br675      Br  0.34273667  0.55694553  0.52139633     0.00400
Br676      Br  0.26928844  0.91628423  0.58646285    -0.03900
In677      In  0.38153548  0.88144317  0.25093207     1.36900
C678        C  0.32865067  0.91918506  0.22777163     0.78200
O679        O  0.42315667  0.87961305  0.22552712    -0.60200
O680        O  0.42231487  0.82488562  0.24441173    -0.51200
C681        C  0.42769629  0.92863357  0.27450159     0.70900
O682        O  0.41512605  0.94347269  0.25839090    -0.46000
C683        C  0.33438291  0.83448801  0.27378866     0.75600
O684        O  0.34207038  0.93801261  0.24300645    -0.57900
O685        O  0.34949993  0.81866547  0.25832154    -0.48000
O686        O  0.34149169  0.88124383  0.22493214    -0.54300
C687        C  0.43627921  0.84220473  0.22908376     0.85800
O688        O  0.41729184  0.89000451  0.27806215    -0.56200
O689        O  0.34192093  0.87430364  0.27679710    -0.59500
N690        N  0.98995635  0.01410236  0.70639552    -0.36000
N691        N  0.42820226  0.99557787  0.67760812    -0.56500
N692        N  0.47879133  0.54944937  0.64994112    -0.36000
N693        N  0.03524610  0.57338130  0.67966728    -0.56500
C694        C  0.46241362  0.99468630  0.71799928     0.27600
C695        C  0.01631130  0.54287050  0.72026629     0.27600
C696        C  0.44437175  0.54505681  0.64019029     0.27600
C697        C  0.49874065  0.58243053  0.64136052     0.27600
C698        C  0.41715298  0.96676055  0.69158584     0.36200
C699        C  0.40777224  0.98466497  0.66108177     0.36200
C700        C  0.06124492  0.57187315  0.69460551     0.36200
C701        C  0.05610180  0.58318791  0.66329830     0.36200
C702        C  0.96952062  0.00615128  0.73755788    -0.21300
C703        C  0.00169374  0.03411297  0.73770060    -0.21300
C704        C  0.44217715  0.57582370  0.62534405    -0.21300
C705        C  0.47643221  0.59979767  0.62623994    -0.21300
C706        C  0.38879307  0.93844848  0.68385621    -0.22300
C707        C  0.38304448  0.94963482  0.66455557    -0.22300
C708        C  0.09896847  0.58057645  0.68770516    -0.22300
C709        C  0.09568305  0.58683819  0.66764175    -0.22300
C710        C  0.43117973  0.96686201  0.71135752    -0.17700
C711        C  0.05046469  0.56667471  0.71453911    -0.17700
C712        C  0.03846278  0.59290143  0.64515694    -0.17700
C713        C  0.40961074  0.00747312  0.64318681    -0.17700
H714        H  0.95268774  0.99630868  0.75038159     0.15200
H715        H  0.01440330  0.04932403  0.75072355     0.15200
H716        H  0.41863613  0.58018065  0.61479869     0.15200
H717        H  0.48444988  0.62627165  0.61655472     0.15200
H718        H  0.37297781  0.91283951  0.69122616     0.13500
H719        H  0.36251597  0.93425071  0.65437044     0.13500
H720        H  0.12593248  0.58177011  0.69621144     0.13500
H721        H  0.11943159  0.59305076  0.65738887     0.13500
H722        H  0.99865905  0.51191975  0.69312216     0.26800
H723        H  0.49064820  0.52695867  0.65974668     0.26800
C724        C  0.22955574  0.52340291  0.51872343     0.02900
C725        C  0.26639564  0.99565512  0.51650906     0.02900
C726        C  0.27962115  0.98122606  0.49797346    -0.17600
C727        C  0.25969750  0.99243832  0.48066418     0.02900
C728        C  0.22624917  0.01926728  0.48182394     0.02900
C729        C  0.20948356  0.53174854  0.50108509    -0.17600
H730        H  0.18322851  0.55152431  0.50137646     0.04900
H731        H  0.30560420  0.96109524  0.49701482     0.04900
N732        N  0.50408659  0.50679231  0.29240718    -0.36000
N733        N  0.05987566  0.53431648  0.32293682    -0.56500
N734        N  0.02407431  0.98334848  0.35174785    -0.36000
N735        N  0.47082246  0.94903317  0.32319025    -0.56500
C736        C  0.03353777  0.52408068  0.28133085     0.27600
C737        C  0.48511151  0.97819117  0.28192162     0.27600
C738        C  0.05788847  0.99472963  0.36085358     0.27600
C739        C  0.01028405  0.94730374  0.36078825     0.27600
C740        C  0.06736820  0.56359225  0.30861613     0.36200
C741        C  0.07285488  0.55255261  0.34003231     0.36200
C742        C  0.44339841  0.94846503  0.30886689     0.36200
C743        C  0.45242448  0.93644397  0.33995548     0.36200
C744        C  0.53079585  0.50754527  0.26221237    -0.21300
C745        C  0.49897914  0.47908782  0.26183843    -0.21300
C746        C  0.06625980  0.96517313  0.37561080    -0.21300
C747        C  0.03616838  0.93489602  0.37547688    -0.21300
C748        C  0.08465834  0.60083106  0.31675453    -0.22300
C749        C  0.08793869  0.59375665  0.33673413    -0.22300
C750        C  0.40722649  0.93569254  0.31660347    -0.22300
C751        C  0.41297743  0.92870425  0.33648043    -0.22300
C752        C  0.06178228  0.55518322  0.28820903    -0.17700
C753        C  0.45207782  0.95389152  0.28864099    -0.17700
C754        C  0.47226712  0.92992408  0.35787399    -0.17700
C755        C  0.07434029  0.53026270  0.35808743    -0.17700
H756        H  0.54997962  0.51452707  0.24985337     0.15200
H757        H  0.48903325  0.46025683  0.24916154     0.15200
H758        H  0.09081480  0.96613640  0.38574913     0.15200
H759        H  0.03287899  0.90779913  0.38546419     0.15200
H760        H  0.09351994  0.63021374  0.30914530     0.13500
H761        H  0.09952620  0.61623353  0.34768614     0.13500
H762        H  0.37966118  0.93190550  0.30872794     0.13500
H763        H  0.39081830  0.91991878  0.34722937     0.13500
H764        H  0.99990406  0.01587216  0.30755846     0.26800
H765        H  0.00831902  0.00311530  0.34218644     0.26800
C766        C  0.49008237  0.75871124  0.51717864     0.02900
C767        C  0.02338503  0.73152818  0.51717703     0.02900
C768        C  0.04351009  0.72328345  0.49946004    -0.17600
C769        C  0.03130987  0.74219902  0.48169287     0.02900
C770        C  0.99847533  0.77020491  0.48179422     0.02900
C771        C  0.47820115  0.77818189  0.49952223    -0.17600
H772        H  0.45295501  0.79950166  0.49956082     0.04900
H773        H  0.06828979  0.70130483  0.49943443     0.04900
N774        N  0.27461833  0.70747860  0.64984188    -0.36000
N775        N  0.21856768  0.68497802  0.68009475    -0.56500
N776        N  0.25989524  0.74223646  0.70828729    -0.36000
N777        N  0.31960880  0.75941951  0.67801311    -0.56500
C778        C  0.25396490  0.67528401  0.64074690     0.27600
C779        C  0.30860558  0.71249125  0.63977582     0.27600
C780        C  0.23667658  0.71861881  0.72068996     0.27600
C781        C  0.28846065  0.76185765  0.71926450     0.27600
C782        C  0.19775086  0.67423265  0.66371778     0.36200
C783        C  0.19228222  0.68805591  0.69495039     0.36200
C784        C  0.33930936  0.76935313  0.66116412     0.36200
C785        C  0.33164955  0.78869873  0.69188082     0.36200
C786        C  0.27512721  0.65963536  0.62466720    -0.21300
C787        C  0.30969202  0.68314014  0.62408611    -0.21300
C788        C  0.25056656  0.72364540  0.73985048    -0.21300
C789        C  0.28290582  0.75123965  0.73897550    -0.21300
C790        C  0.15813561  0.67144148  0.66800687    -0.22300
C791        C  0.15457332  0.67962367  0.68792867    -0.22300
C792        C  0.36429217  0.80445334  0.66432727    -0.22300
C793        C  0.35963313  0.81650641  0.68369895    -0.22300
C794        C  0.21497267  0.66312935  0.64550991    -0.17700
C795        C  0.33665615  0.74580916  0.64318706    -0.17700
C796        C  0.31905568  0.78944806  0.71196621    -0.17700
C797        C  0.20254789  0.69433233  0.71499500    -0.17700
H798        H  0.26628484  0.63482702  0.61406184     0.15200
H799        H  0.33256276  0.67979126  0.61305247     0.15200
H800        H  0.23883645  0.70910167  0.75314082     0.15200
H801        H  0.30084078  0.76144956  0.75142821     0.15200
H802        H  0.13447531  0.66488772  0.65773006     0.13500
H803        H  0.12738990  0.67976690  0.69626836     0.13500
H804        H  0.38430025  0.81940009  0.65386887     0.13500
H805        H  0.37604223  0.84226309  0.69081389     0.13500
H806        H  0.26373624  0.72880504  0.66047718     0.26800
H807        H  0.25464864  0.74780792  0.69339450     0.26800
N808        N  0.25993345  0.75320357  0.29358549    -0.36000
N809        N  0.29595232  0.81079969  0.32335752    -0.56500
N810        N  0.24606357  0.77541232  0.35381781    -0.36000
N811        N  0.20606132  0.72261783  0.32419285    -0.56500
C812        C  0.27964892  0.78186218  0.28200686     0.27600
C813        C  0.23143133  0.73408892  0.28241222     0.27600
C814        C  0.26101697  0.81110661  0.36304979     0.27600
C815        C  0.21307406  0.76378017  0.36364879     0.27600
C816        C  0.32166466  0.81468137  0.30830628     0.36200
C817        C  0.31499179  0.82540965  0.33968198     0.36200
C818        C  0.19793561  0.69391947  0.30946941     0.36200
C819        C  0.19137157  0.70492090  0.34092843     0.36200
C820        C  0.26412773  0.78025301  0.26305546    -0.21300
C821        C  0.23369121  0.75005836  0.26330283    -0.21300
C822        C  0.23767916  0.82178925  0.37917385    -0.21300
C823        C  0.20747281  0.79177985  0.37959837    -0.21300
C824        C  0.35740034  0.83107592  0.31520121    -0.22300
C825        C  0.35311643  0.83750563  0.33519473    -0.22300
C826        C  0.17870672  0.65753978  0.31701029    -0.22300
C827        C  0.17453940  0.66467225  0.33696618    -0.22300
C828        C  0.31164043  0.80858287  0.28824170    -0.17700
C829        C  0.20404594  0.70228573  0.28915832    -0.17700
C830        C  0.18946867  0.72690821  0.35923467    -0.17700
C831        C  0.29649047  0.83246297  0.35794414    -0.17700
H832        H  0.27336178  0.79919742  0.25042052     0.15200
H833        H  0.21500877  0.74151904  0.25088450     0.15200
H834        H  0.24213612  0.84807143  0.38973464     0.15200
H835        H  0.18433172  0.79057881  0.39057230     0.15200
H836        H  0.38370161  0.83779933  0.30669506     0.13500
H837        H  0.37539569  0.84900907  0.34539330     0.13500
H838        H  0.16875114  0.62885988  0.30897506     0.13500
H839        H  0.16121622  0.64277130  0.34748694     0.13500
H840        H  0.26741638  0.74481764  0.30796555     0.26800
H841        H  0.25974794  0.75734235  0.34274149     0.26800
C842        C  0.48148704  0.99171822  0.01939957     0.02900
C843        C  0.01963939  0.01033747  0.01829209     0.02900
C844        C  0.04445157  0.49807153  0.99797685    -0.17600
C845        C  0.52340612  0.49392237  0.98015336     0.02900
C846        C  0.47157383  0.00565774  0.98428935     0.02900
C847        C  0.45720169  0.99159780  0.00269013    -0.17600
H848        H  0.42705409  0.98026481  0.00408716     0.04900
H849        H  0.07307443  0.51397530  0.99803479     0.04900
N850        N  0.26347493  0.50521640  0.85038125    -0.36000
N851        N  0.31222509  0.98333980  0.82092801    -0.56500
N852        N  0.25649008  0.01471826  0.79156299    -0.36000
N853        N  0.20338591  0.53362455  0.82417232    -0.56500
C854        C  0.29204200  0.48338900  0.85970651     0.27600
C855        C  0.23225990  0.50620380  0.86262952     0.27600
C856        C  0.27903182  0.98828952  0.78001479     0.27600
C857        C  0.22413557  0.52504749  0.78153269     0.27600
C858        C  0.33829217  0.99031942  0.83568434     0.36200
C859        C  0.33315685  0.97903153  0.80418249     0.36200
C860        C  0.18706198  0.54685925  0.84146558     0.36200
C861        C  0.18534188  0.55598677  0.80971363     0.36200
C862        C  0.27873439  0.46887455  0.87783552    -0.21300
C863        C  0.24088913  0.48336985  0.87973675    -0.21300
C864        C  0.26252244  0.98666169  0.76122387    -0.21300
C865        C  0.22960583  0.01275017  0.76153583    -0.21300
C866        C  0.37630510  0.99030149  0.82844690    -0.22300
C867        C  0.37312753  0.98258406  0.80840509    -0.22300
C868        C  0.15661486  0.57520725  0.83796878    -0.22300
C869        C  0.15529827  0.58082261  0.81785162    -0.22300
C870        C  0.32699428  0.99437170  0.85555866    -0.17700
C871        C  0.20100078  0.53543662  0.86038537    -0.17700
C872        C  0.19471742  0.55328145  0.78926104    -0.17700
C873        C  0.31595181  0.96962459  0.78558301    -0.17700
H874        H  0.29550944  0.45224412  0.88903696     0.15200
H875        H  0.22300054  0.47916193  0.89276812     0.15200
H876        H  0.27376319  0.97063333  0.74815489     0.15200
H877        H  0.21074878  0.01883189  0.74901532     0.15200
H878        H  0.40332398  0.99502349  0.83668543     0.13500
H879        H  0.39752469  0.98153673  0.79815964     0.13500
H880        H  0.13782759  0.59054179  0.84883495     0.13500
H881        H  0.13435912  0.60075406  0.81016755     0.13500
H882        H  0.26826893  0.52615968  0.83856109     0.26800
H883        H  0.26328463  0.02587209  0.80565785     0.26800
N884        N  0.45718861  0.70774535  0.84890201    -0.36000
N885        N  0.02057762  0.68671113  0.82315476    -0.56500
N886        N  0.99144640  0.75039804  0.79452407    -0.36000
N887        N  0.42526738  0.76799722  0.82134921    -0.56500
C888        C  0.47100052  0.67062293  0.85673132     0.27600
C889        C  0.42054782  0.71336227  0.85605161     0.27600
C890        C  0.01626434  0.72638758  0.78313530     0.27600
C891        C  0.46591294  0.77094310  0.78237325     0.27600
C892        C  0.03498480  0.67075680  0.84024445     0.36200
C893        C  0.05118786  0.69018291  0.81060832     0.36200
C894        C  0.40503057  0.77973485  0.83776079     0.36200
C895        C  0.42148335  0.80080997  0.80838035     0.36200
C896        C  0.44222585  0.65129431  0.86836233    -0.21300
C897        C  0.41046594  0.67871721  0.86818437    -0.21300
C898        C  0.00681913  0.73242882  0.76340935    -0.21300
C899        C  0.97522682  0.76055411  0.76292413    -0.21300
C900        C  0.07515851  0.66470601  0.83871227    -0.22300
C901        C  0.08540233  0.67663191  0.81979562    -0.22300
C902        C  0.38824387  0.82017977  0.83531016    -0.22300
C903        C  0.39870107  0.83365273  0.81666692    -0.22300
C904        C  0.01100593  0.65904319  0.85642356    -0.17700
C905        C  0.39932587  0.75227570  0.85411993    -0.17700
C906        C  0.43503963  0.79922664  0.78859035    -0.17700
C907        C  0.04732262  0.69987469  0.79033912    -0.17700
H908        H  0.44489541  0.62211938  0.87713019     0.15200
H909        H  0.38384558  0.67439775  0.87672884     0.15200
H910        H  0.02081530  0.71781808  0.75064786     0.15200
H911        H  0.96041801  0.77133401  0.74971117     0.15200
H912        H  0.09481301  0.65252889  0.84989828     0.13500
H913        H  0.11460959  0.67547738  0.81345283     0.13500
H914        H  0.36990064  0.83770799  0.84569363     0.13500
H915        H  0.39027745  0.86410608  0.80998739     0.13500
H916        H  0.47427929  0.73179913  0.84215749     0.26800
H917        H  0.49343218  0.75483555  0.80976223     0.26800
In918      In  0.13274255  0.62988153  0.25101032     1.36900
C919        C  0.08746002  0.57940099  0.27408056     0.78200
O920        O  0.13572361  0.58633139  0.22397992    -0.60200
O921        O  0.18421783  0.58541735  0.24326723    -0.51200
C922        C  0.09596389  0.69204426  0.23016770     0.70900
O923        O  0.07909536  0.67147734  0.24382500    -0.46000
C924        C  0.17865968  0.67819547  0.27479289     0.75600
O925        O  0.07660093  0.59132157  0.25717466    -0.57900
O926        O  0.19113346  0.66203839  0.25881280    -0.48000
O927        O  0.12199664  0.59125125  0.27847299    -0.54300
C928        C  0.16958395  0.57164536  0.22728504     0.85800
O929        O  0.13171603  0.68245013  0.22805324    -0.56200
O930        O  0.14263253  0.67106278  0.27803023    -0.59500
N931        N  0.24496979  0.49080372  0.20791756    -0.36000
N932        N  0.18358155  0.51324089  0.17936540    -0.56500
N933        N  0.22356595  0.95364337  0.15097660    -0.36000
N934        N  0.28022471  0.92793303  0.17961205    -0.56500
C935        C  0.21836220  0.51119833  0.21964727     0.27600
C936        C  0.26872295  0.96436507  0.21999449     0.27600
C937        C  0.18935346  0.96200948  0.14177494     0.27600
C938        C  0.23881634  0.91791267  0.14224501     0.27600
C939        C  0.18111512  0.54602376  0.19272047     0.36200
C940        C  0.16814602  0.52848168  0.16234162     0.36200
C941        C  0.30878053  0.93127907  0.19333214     0.36200
C942        C  0.29775496  0.91368586  0.16287140     0.36200
C943        C  0.22415032  0.49847833  0.23905725    -0.21300
C944        C  0.25497978  0.46931825  0.23895827    -0.21300
C945        C  0.18259642  0.93091611  0.12707612    -0.21300
C946        C  0.21381974  0.90291695  0.12747896    -0.21300
C947        C  0.16483792  0.58226994  0.18398763    -0.22300
C948        C  0.15575895  0.57091304  0.16480873    -0.22300
C949        C  0.34471777  0.91951097  0.18520150    -0.22300
C950        C  0.33758680  0.90871615  0.16574770    -0.22300
C951        C  0.19049310  0.54221543  0.21301493    -0.17700
C952        C  0.30160243  0.93979502  0.21351120    -0.17700
C953        C  0.27714634  0.90279114  0.14553119    -0.17700
C954        C  0.16433020  0.50355793  0.14488130    -0.17700
H955        H  0.20775745  0.50866739  0.25196833     0.15200
H956        H  0.26674136  0.45310820  0.25177534     0.15200
H957        H  0.15864236  0.92923714  0.11658328     0.15200
H958        H  0.21840491  0.87569848  0.11751772     0.15200
H959        H  0.16172138  0.61404095  0.19062994     0.13500
H960        H  0.14279955  0.59170596  0.15378871     0.13500
H961        H  0.37302019  0.91899922  0.19252467     0.13500
H962        H  0.35894354  0.89929763  0.15477294     0.13500
H963        H  0.25236927  0.99685387  0.19346332     0.26800
H964        H  0.23859860  0.97513658  0.16034887     0.26800
C965        C  0.24994420  0.69003935  0.98715138     0.02900
C966        C  0.27976527  0.72248648  0.98586201     0.02900
C967        C  0.29253242  0.74415033  0.00314560    -0.17600
C968        C  0.27495702  0.73523725  0.02146609     0.02900
C969        C  0.24411492  0.70398567  0.02249330     0.02900
C970        C  0.23245964  0.68115205  0.00545320    -0.17600
H971        H  0.20864071  0.65743858  0.00630690     0.04900
H972        H  0.31493137  0.76946787  0.00219014     0.04900
In973      In  0.12512150  0.63147234  0.75360907     1.36900
C974        C  0.07451304  0.67652158  0.77660511     0.78200
O975        O  0.08703009  0.62841559  0.72675411    -0.60200
O976        O  0.08748534  0.57273754  0.74507710    -0.51200
C977        C  0.17691292  0.67202877  0.72981563     0.70900
O978        O  0.16745445  0.68774713  0.74643324    -0.46000
C979        C  0.17182132  0.58122128  0.77562066     0.75600
O980        O  0.09067857  0.69317574  0.76166717    -0.57900
O981        O  0.15280157  0.56665431  0.76100424    -0.48000
O982        O  0.08398526  0.63751257  0.77942390    -0.54300
C983        C  0.07523318  0.58980831  0.72939128     0.85800
O984        O  0.16141697  0.63538406  0.72615674    -0.56200
O985        O  0.16832810  0.62173446  0.77838509    -0.59500
In986      In  0.37528420  0.87968916  0.74952676     1.36900
C987        C  0.41405361  0.82696656  0.77403225     0.78200
O988        O  0.37246689  0.92761022  0.77475733    -0.60200
O989        O  0.32062564  0.91710731  0.75839653    -0.51200
C990        C  0.41148018  0.93696471  0.72567154     0.70900
O991        O  0.37497825  0.92951127  0.72549430    -0.46000
C992        C  0.33916116  0.82035911  0.72600393     0.75600
O993        O  0.43086041  0.84628726  0.75993785    -0.57900
O994        O  0.32125109  0.84131936  0.73927455    -0.48000
O995        O  0.37762209  0.83426755  0.77526067    -0.54300
C996        C  0.33698864  0.93795972  0.77231664     0.85800
O997        O  0.42980263  0.91554660  0.73846786    -0.56200
O998        O  0.37543606  0.82900207  0.72525938    -0.59500
N999        N  0.51967995  0.77068455  0.21084733    -0.36000
N1000       N  0.48319099  0.82600869  0.18067195    -0.56500
N1001       N  0.04038975  0.79854476  0.15236173    -0.36000
N1002       N  0.08128669  0.74880951  0.18233582    -0.56500
C1003       C  0.49642491  0.79620213  0.22225243     0.27600
C1004       C  0.04639121  0.75148453  0.22273465     0.27600
C1005       C  0.02175046  0.82942975  0.14193692     0.27600
C1006       C  0.07461827  0.79032765  0.14306234     0.27600
C1007       C  0.45559907  0.82523570  0.19496728     0.36200
C1008       C  0.46415884  0.83570841  0.16374398     0.36200
C1009       C  0.08538868  0.71736067  0.19601864     0.36200
C1010       C  0.09728660  0.73266504  0.16550200     0.36200
C1011       C  0.50835523  0.79289370  0.24181193    -0.21300
C1012       C  0.53972772  0.76436558  0.24212267    -0.21300
C1013       C  0.04451314  0.84126004  0.12580403    -0.21300
C1014       C  0.07803095  0.81655710  0.12651841    -0.21300
C1015       C  0.41892486  0.83434476  0.18705203    -0.22300
C1016       C  0.42447185  0.84057774  0.16717585    -0.22300
C1017       C  0.10348241  0.68141224  0.18776463    -0.22300
C1018       C  0.11194112  0.69139397  0.16854091    -0.22300
C1019       C  0.46366582  0.82013982  0.21527203    -0.17700
C1020       C  0.07526054  0.72149626  0.21618892    -0.17700
C1021       C  0.09910070  0.75496293  0.14744038    -0.17700
C1022       C  0.48298117  0.84323467  0.14558334    -0.17700
H1023       H  0.49569662  0.80898605  0.25456800     0.15200
H1024       H  0.55587117  0.75450552  0.25509741     0.15200
H1025       H  0.03694293  0.86372761  0.11422490     0.15200
H1026       H  0.10125114  0.81638247  0.11556643     0.15200
H1027       H  0.39106082  0.83569169  0.19477263     0.13500
H1028       H  0.40210104  0.84683867  0.15630724     0.13500
H1029       H  0.10832873  0.65062410  0.19484709     0.13500
H1030       H  0.12589097  0.67018355  0.15784778     0.13500
H1031       H  0.01527156  0.76347261  0.19596395     0.26800
H1032       H  0.02772784  0.77920278  0.16322890     0.26800
C1033       C  0.12356551  0.73735362  0.13126223    -0.11300
C1034       C  0.16108155  0.75478046  0.12721456     0.04100
C1035       C  0.18012251  0.74321877  0.10967681    -0.11900
C1036       C  0.16279710  0.71316709  0.09650917     0.19000
C1037       C  0.12659930  0.69334046  0.10130879    -0.08900
C1038       C  0.10698126  0.70592592  0.11851688    -0.01900
H1039       H  0.20764227  0.75905144  0.10587913     0.05500
C1040       C  0.18106014  0.70629979  0.07704797     0.21000
H1041       H  0.07816562  0.69223322  0.12168363     0.10700
C1042       C  0.21487896  0.68078199  0.07541446    -0.15300
C1043       C  0.23466310  0.67720359  0.05734938     0.03700
C1044       C  0.22046434  0.69935070  0.04070407    -0.10600
C1045       C  0.18555936  0.72312642  0.04218670    -0.00600
C1046       C  0.16622731  0.72738516  0.06027872    -0.05800
H1047       H  0.22635359  0.66450195  0.08830769     0.06700
H1048       H  0.17483869  0.74083749  0.02951907     0.10100
Br1049     Br  0.10219089  0.65071996  0.08429927    -0.05500
Br1050     Br  0.18627809  0.79563807  0.14481542    -0.02400
Br1051     Br  0.28109955  0.64248550  0.05615217     0.00400
Br1052     Br  0.12183350  0.76550264  0.06184925    -0.03900
C1053       C  0.28600895  0.76151679  0.03918288    -0.11300
C1054       C  0.32065948  0.75355911  0.04995848     0.04100
C1055       C  0.32653028  0.77381553  0.06842648    -0.11900
C1056       C  0.29873335  0.80301521  0.07603777     0.19000
C1057       C  0.26479626  0.81199206  0.06487384    -0.08900
C1058       C  0.25897426  0.79174042  0.04656501    -0.01900
H1059       H  0.35269908  0.76670511  0.07686655     0.05500
C1060       C  0.30539853  0.82571587  0.09516046     0.21000
H1061       H  0.23246528  0.79851164  0.03830738     0.10700
C1062       C  0.31263283  0.87079394  0.09491525    -0.15300
C1063       C  0.30727712  0.89609804  0.11193236     0.03700
C1064       C  0.29560674  0.87621092  0.12968225    -0.10600
C1065       C  0.29286656  0.83056075  0.13050431    -0.00600
C1066       C  0.29758668  0.80518161  0.11333310    -0.05800
H1067       H  0.31886732  0.88682718  0.08103407     0.06700
H1068       H  0.28369911  0.81500532  0.14408872     0.10100
Br1069     Br  0.22432140  0.84994832  0.07443215    -0.05500
Br1070     Br  0.36040655  0.71518796  0.04007499    -0.02400
Br1071     Br  0.31032832  0.95826292  0.10965224     0.00400
Br1072     Br  0.28902943  0.74341027  0.11497662    -0.03900
C1073       C  0.37340829  0.76523458  0.87079773    -0.11300
C1074       C  0.33646918  0.74516098  0.87357180     0.04100
C1075       C  0.31846361  0.74657943  0.89219311    -0.11900
C1076       C  0.33641140  0.76905009  0.90805471     0.19000
C1077       C  0.37103677  0.79351501  0.90451354    -0.08900
C1078       C  0.38946189  0.79110225  0.88603435    -0.01900
H1079       H  0.29172657  0.72781858  0.89460117     0.05500
C1080       C  0.32219087  0.76109908  0.92849546     0.21000
H1081       H  0.41765353  0.80723413  0.88393659     0.10700
C1082       C  0.34746278  0.74057684  0.94190459    -0.15300
C1083       C  0.33457716  0.72897867  0.96080767     0.03700
C1084       C  0.29537993  0.73666761  0.96641810    -0.10600
C1085       C  0.27036444  0.75818215  0.95324442    -0.00600
C1086       C  0.28346708  0.77056263  0.93445765    -0.05800
H1087       H  0.37725850  0.73283397  0.93750404     0.06700
H1088       H  0.24051134  0.76550887  0.95763551     0.10100
Br1089     Br  0.39511265  0.82896262  0.92475410    -0.05500
Br1090     Br  0.31211563  0.71182994  0.85278740    -0.02400
Br1091     Br  0.37123851  0.70161222  0.97818306     0.00400
Br1092     Br  0.24793986  0.80165073  0.91781240    -0.03900
C1093       C  0.23564665  0.66613506  0.96941747    -0.11300
C1094       C  0.19960274  0.67670397  0.96047841     0.04100
C1095       C  0.18850623  0.65639486  0.94273772    -0.11900
C1096       C  0.21146041  0.62338120  0.93443854     0.19000
C1097       C  0.24649431  0.61106187  0.94392198    -0.08900
C1098       C  0.25872605  0.63301801  0.96112175    -0.01900
H1099       H  0.16214673  0.66672168  0.93523948     0.05500
C1100       C  0.20025819  0.60453282  0.91508915     0.21000
H1101       H  0.28625683  0.62429665  0.96804582     0.10700
C1102       C  0.21327070  0.62549985  0.89797377    -0.15300
C1103       C  0.20931344  0.60533491  0.87948901     0.03700
C1104       C  0.19202802  0.56333454  0.87793257    -0.10600
C1105       C  0.17535731  0.54460929  0.89489920    -0.00600
C1106       C  0.17964963  0.56467430  0.91343793    -0.05800
H1107       H  0.22869039  0.65652810  0.89914151     0.06700
H1108       H  0.16226872  0.51236121  0.89403500     0.10100
Br1109     Br  0.27870084  0.56508492  0.93363710    -0.05500
Br1110     Br  0.16502311  0.71920869  0.97175694    -0.02400
Br1111     Br  0.23229966  0.63462359  0.85729553     0.00400
Br1112     Br  0.16034637  0.53457703  0.93623450    -0.03900
C1113       C  0.02708685  0.63518097  0.87377735    -0.11300
C1114       C  0.52099449  0.65096724  0.89314577     0.04100
C1115       C  0.52926973  0.62475385  0.90926224    -0.11900
C1116       C  0.04732132  0.58390027  0.90713639     0.19000
C1117       C  0.05589168  0.56923574  0.88760060    -0.08900
C1118       C  0.04510138  0.59453303  0.87125900    -0.01900
H1119       H  0.52002836  0.63629013  0.92365391     0.05500
C1120       C  0.05282544  0.55721482  0.92552454     0.21000
H1121       H  0.05010662  0.58196382  0.85646716     0.10700
C1122       C  0.54256103  0.51257337  0.92567880    -0.15300
C1123       C  0.53952847  0.48957172  0.94344335     0.03700
C1124       C  0.54090220  0.51228138  0.96163213    -0.10600
C1125       C  0.05470071  0.55548357  0.96165963    -0.00600
C1126       C  0.06246218  0.57719847  0.94395545    -0.05800
H1127       H  0.53468901  0.49554964  0.91221345     0.06700
H1128       H  0.05807763  0.57315457  0.97549213     0.10100
Br1129     Br  0.08195275  0.51561111  0.88154086    -0.05500
Br1130     Br  0.50104749  0.70821730  0.89881045    -0.02400
Br1131     Br  0.51604538  0.94688729  0.94711837     0.00400
Br1132     Br  0.08607007  0.63414567  0.94634009    -0.03900
C1133       C  0.44448170  0.00723742  0.96695599    -0.11300
C1134       C  0.42362265  0.97016195  0.95980403     0.04100
C1135       C  0.40691511  0.97087040  0.94089847    -0.11900
C1136       C  0.41133689  0.00741599  0.92869114     0.19000
C1137       C  0.43707439  0.52333408  0.93522984    -0.08900
C1138       C  0.45403061  0.52022408  0.95389747    -0.01900
H1139       H  0.39139847  0.94216698  0.93545716     0.05500
C1140       C  0.39490620  0.00610955  0.90836851     0.21000
H1141       H  0.46726526  0.54912549  0.96051082     0.10700
C1142       C  0.37467799  0.52083082  0.90242113    -0.15300
C1143       C  0.35644142  0.52387676  0.88412452     0.03700
C1144       C  0.35569725  0.00194920  0.87172527    -0.10600
C1145       C  0.38245245  0.96947356  0.87682577    -0.00600
C1146       C  0.40295880  0.97196762  0.89477899    -0.05800
H1147       H  0.36723169  0.54433749  0.91380729     0.06700
H1148       H  0.38642217  0.94151534  0.86716408     0.10100
Br1149     Br  0.44186668  0.57869790  0.92234631    -0.05500
Br1150     Br  0.41990941  0.91620700  0.97393968    -0.02400
Br1151     Br  0.32391191  0.57382698  0.87972616     0.00400
Br1152     Br  0.44168574  0.92830405  0.89972471    -0.03900
C1153       C  0.13866343  0.51782393  0.12855045    -0.11300
C1154       C  0.15495681  0.53936178  0.11211362     0.04100
C1155       C  0.13433660  0.53997405  0.09425113    -0.11900
C1156       C  0.09784497  0.51856062  0.09236809     0.19000
C1157       C  0.08791505  0.99538885  0.10648900    -0.08900
C1158       C  0.10714684  0.99154876  0.12457948    -0.01900
H1159       H  0.14786541  0.55494312  0.08145092     0.05500
C1160       C  0.08073769  0.51242795  0.07242618     0.21000
H1161       H  0.09696361  0.96732856  0.13502998     0.10700
C1162       C  0.10089675  0.00459911  0.05681056    -0.15300
C1163       C  0.08126504  0.99976595  0.03874644     0.03700
C1164       C  0.04827261  0.49482423  0.03481532    -0.10600
C1165       C  0.02837281  0.52136013  0.04851833    -0.00600
C1166       C  0.04435253  0.53043577  0.06715056    -0.05800
H1167       H  0.12920735  0.98931568  0.05879896     0.06700
H1168       H  0.00007406  0.53489037  0.04470734     0.10100
Br1169     Br  0.04676968  0.95473579  0.10032497    -0.05500
Br1170     Br  0.20711890  0.56384134  0.11275074    -0.02400
Br1171     Br  0.10632383  0.96587492  0.01844796     0.00400
Br1172     Br  0.01582548  0.56818688  0.08465963    -0.03900
C1173       C  0.46822131  0.96909721  0.03754405    -0.11300
C1174       C  0.98441867  0.92872811  0.04259385     0.04100
C1175       C  0.97613889  0.91040361  0.06093482    -0.11900
C1176       C  0.45034071  0.93057295  0.07437279     0.19000
C1177       C  0.43323533  0.97062527  0.06904238    -0.08900
C1178       C  0.44200585  0.98930518  0.05066086    -0.01900
H1179       H  0.99057595  0.88036708  0.06485200     0.05500
C1180       C  0.44512273  0.91028762  0.09419051     0.21000
H1181       H  0.42942840  0.02043956  0.04686880     0.10700
C1182       C  0.45546969  0.93421255  0.11126932    -0.15300
C1183       C  0.46432011  0.91297978  0.12893788     0.03700
C1184       C  0.46237417  0.86721124  0.12974013    -0.10600
C1185       C  0.44704396  0.84379065  0.11358338    -0.00600
C1186       C  0.43806103  0.86500025  0.09594998    -0.05800
H1187       H  0.96100330  0.96894609  0.11038239     0.06700
H1188       H  0.44463499  0.80858752  0.11424376     0.10100
Br1189     Br  0.39824256  0.00164462  0.08616524    -0.05500
Br1190     Br  0.01764726  0.89697972  0.02476443    -0.02400
Br1191     Br  0.98436623  0.94706612  0.15067691     0.00400
Br1192     Br  0.41886320  0.83023694  0.07423706    -0.03900
C1193       C  0.36291638  0.75755338  0.62643150    -0.11300
C1194       C  0.40199961  0.74294491  0.62529311     0.04100
C1195       C  0.42357457  0.74885295  0.60783786    -0.11900
C1196       C  0.40667951  0.76942851  0.59144813     0.19000
C1197       C  0.36816618  0.78570861  0.59298809    -0.08900
C1198       C  0.34667891  0.77968742  0.61036995    -0.01900
H1199       H  0.45300828  0.73578424  0.60676062     0.05500
C1200       C  0.42772347  0.76947515  0.57226260     0.21000
H1201       H  0.31660577  0.79098008  0.61114158     0.10700
C1202       C  0.41168275  0.74521959  0.55648396    -0.15300
C1203       C  0.43060055  0.74339958  0.53817818     0.03700
C1204       C  0.46673651  0.76541203  0.53547539    -0.10600
C1205       C  0.48281374  0.78991685  0.55120751    -0.00600
C1206       C  0.46352081  0.79221063  0.56950505    -0.05800
H1207       H  0.38444912  0.72711791  0.55851935     0.06700
H1208       H  0.51079009  0.80662392  0.54932880     0.10100
Br1209     Br  0.34323409  0.81537068  0.57155868    -0.05500
Br1210     Br  0.42591825  0.71230580  0.64668863    -0.02400
Br1211     Br  0.40718752  0.70795389  0.51777651     0.00400
Br1212     Br  0.48673977  0.82713428  0.59015000    -0.03900
C1213       C  0.05221432  0.73124572  0.46302586    -0.11300
C1214       C  0.09183976  0.74341340  0.46002658     0.04100
C1215       C  0.10990560  0.73477839  0.44187887    -0.11900
C1216       C  0.08914650  0.71426707  0.42642133     0.19000
C1217       C  0.04981065  0.70108243  0.42950268    -0.08900
C1218       C  0.03173441  0.70949881  0.44773752    -0.01900
H1219       H  0.14010151  0.74528078  0.43959653     0.05500
C1220       C  0.10915854  0.70942440  0.40709745     0.21000
H1221       H  0.00142748  0.69942926  0.44994742     0.10700
C1222       C  0.14251960  0.68290041  0.40576813    -0.15300
C1223       C  0.16785769  0.68568400  0.38948671     0.03700
C1224       C  0.15909454  0.71408593  0.37390788    -0.10600
C1225       C  0.12414790  0.73792944  0.37451326    -0.00600
C1226       C  0.09991560  0.73686244  0.39118892    -0.05800
H1227       H  0.15037745  0.66243054  0.41809216     0.06700
H1228       H  0.11793121  0.76092289  0.36287572     0.10100
Br1229     Br  0.01982110  0.67142588  0.40937600    -0.05500
Br1230     Br  0.12198038  0.77431187  0.47969273    -0.02400
Br1231     Br  0.21625375  0.65420701  0.39011629     0.00400
Br1232     Br  0.05908283  0.77928720  0.39293935    -0.03900
C1233       C  0.48594428  0.79272619  0.46362498    -0.11300
C1234       C  0.45075158  0.78138369  0.45379963     0.04100
C1235       C  0.44064219  0.80236881  0.43625256    -0.11900
C1236       C  0.46503021  0.83502036  0.42831796     0.19000
C1237       C  0.00059479  0.84585267  0.43811474    -0.08900
C1238       C  0.01063703  0.82483741  0.45561052    -0.01900
H1239       H  0.41392995  0.79267308  0.42864165     0.05500
C1240       C  0.45386638  0.85733417  0.40977256     0.21000
H1241       H  0.03813635  0.83316594  0.46289473     0.10700
C1242       C  0.44823046  0.90257990  0.41022066    -0.15300
C1243       C  0.44813165  0.92649708  0.39273547     0.03700
C1244       C  0.45431656  0.90522819  0.37447624    -0.10600
C1245       C  0.45424612  0.85947946  0.37381880    -0.00600
C1246       C  0.95344694  0.83536891  0.39135934    -0.05800
H1247       H  0.44690370  0.91970464  0.42427328     0.06700
H1248       H  0.95836962  0.84269103  0.35983382     0.10100
Br1249     Br  0.03788564  0.88713838  0.42774721    -0.05500
Br1250     Br  0.41685021  0.73570570  0.46315678    -0.02400
Br1251     Br  0.44529725  0.98884044  0.39455209     0.00400
Br1252     Br  0.95551580  0.77301815  0.38940274    -0.03900
C1253       C  0.20190742  0.52503319  0.46464925    -0.11300
C1254       C  0.20959086  0.56384826  0.45432266     0.04100
C1255       C  0.19034517  0.57169611  0.43643139    -0.11900
C1256       C  0.16363756  0.54100473  0.42863169     0.19000
C1257       C  0.16592410  0.00691994  0.43541322    -0.08900
C1258       C  0.18347108  0.99851143  0.45356893    -0.01900
H1259       H  0.19634345  0.60161413  0.42856796     0.05500
C1260       C  0.14346672  0.54953697  0.40978255     0.21000
H1261       H  0.18160584  0.96595905  0.45953681     0.10700
C1262       C  0.16566059  0.05002363  0.39101366    -0.15300
C1263       C  0.14416287  0.04641659  0.37343326     0.03700
C1264       C  0.10020324  0.54574448  0.37441783    -0.10600
C1265       C  0.08260115  0.56083418  0.39193350    -0.00600
C1266       C  0.10401830  0.56290317  0.40956322    -0.05800
H1267       H  0.19679285  0.04276244  0.39091335     0.06700
H1268       H  0.05143594  0.56791973  0.39217390     0.10100
Br1269     Br  0.14221543  0.95892420  0.42129529    -0.05500
Br1270     Br  0.24692249  0.60624690  0.46393211    -0.02400
Br1271     Br  0.17118873  0.02792940  0.34997306     0.00400
Br1272     Br  0.07761545  0.58029071  0.43338140    -0.03900
C1273       C  0.27315265  0.97407327  0.46155471    -0.11300
C1274       C  0.26237731  0.93137998  0.45593677     0.04100
C1275       C  0.27372326  0.91509456  0.43752482    -0.11900
C1276       C  0.29763507  0.93981215  0.42479893     0.19000
C1277       C  0.30874671  0.98250575  0.43046502    -0.08900
C1278       C  0.29605021  0.99954114  0.44868027    -0.01900
H1279       H  0.26450006  0.88242686  0.43324826     0.05500
C1280       C  0.31023979  0.91928959  0.40592249     0.21000
H1281       H  0.30450860  0.03243475  0.45295780     0.10700
C1282       C  0.29602589  0.93518416  0.38791145    -0.15300
C1283       C  0.29716627  0.90914096  0.37080500     0.03700
C1284       C  0.31172592  0.86635147  0.37181608    -0.10600
C1285       C  0.33055424  0.85285759  0.38909576    -0.00600
C1286       C  0.33006591  0.87916271  0.40606269    -0.05800
H1287       H  0.28101510  0.96614564  0.38751013     0.06700
H1288       H  0.34214532  0.82016161  0.38997086     0.10100
Br1289     Br  0.34273090  0.01762284  0.41439026    -0.05500
Br1290     Br  0.23227807  0.89398943  0.47296972    -0.02400
Br1291     Br  0.27331697  0.93046323  0.34711858     0.00400
Br1292     Br  0.35272543  0.85706174  0.42983348    -0.03900
C1293       C  0.21429532  0.54148200  0.53750287    -0.11300
C1294       C  0.22469644  0.58371461  0.54387816     0.04100
C1295       C  0.21339593  0.59805817  0.56263718    -0.11900
C1296       C  0.19081840  0.57136129  0.57522190     0.19000
C1297       C  0.17824765  0.52995454  0.56824073    -0.08900
C1298       C  0.19035202  0.51532022  0.54954922    -0.01900
H1299       H  0.22302996  0.63011668  0.56759503     0.05500
C1300       C  0.18282860  0.58810742  0.59552032     0.21000
H1301       H  0.18147010  0.48311644  0.54446004     0.10700
C1302       C  0.16807729  0.63065777  0.59748059    -0.13300
C1303       C  0.17426843  0.65490165  0.61481676     0.03700
C1304       C  0.19318686  0.63568727  0.63096405    -0.10600
C1305       C  0.20210531  0.59123225  0.63015658    -0.00600
C1306       C  0.19865209  0.56781950  0.61241062    -0.05800
H1307       H  0.15597959  0.64683846  0.58470148     0.06700
H1308       H  0.21743336  0.57661515  0.64244365     0.10100
Br1309     Br  0.14404187  0.49231228  0.58309954    -0.05500
Br1310     Br  0.25447373  0.62288964  0.52759343    -0.02400
Br1311     Br  0.16311024  0.71604128  0.61459023     0.00400
Br1312     Br  0.22449156  0.51258866  0.61145095    -0.03900
C1313       C  0.06052689  0.61436771  0.62902578    -0.11300
C1314       C  0.05978066  0.66009135  0.62736423     0.04100
C1315       C  0.06055391  0.67903466  0.60861828    -0.11900
C1316       C  0.06207918  0.65271423  0.59157886     0.19000
C1317       C  0.06836954  0.60769555  0.59345087    -0.08900
C1318       C  0.06811907  0.58888729  0.61215974    -0.01900
H1319       H  0.05655494  0.71388265  0.60729097     0.05500
C1320       C  0.05289328  0.67178838  0.57219046     0.21000
H1321       H  0.06870789  0.55368499  0.61330045     0.10700
C1322       C  0.07854027  0.70281161  0.56398284    -0.15300
C1323       C  0.06993068  0.72195602  0.54580152     0.03700
C1324       C  0.03566154  0.70933822  0.53544619    -0.10600
C1325       C  0.51035087  0.67796808  0.54357063    -0.00600
C1326       C  0.51798982  0.66018733  0.56202687    -0.05800
H1327       H  0.10494707  0.71261466  0.57188965     0.06700
H1328       H  0.48361113  0.66862782  0.53585593     0.10100
Br1329     Br  0.07261069  0.57021382  0.57072940    -0.05500
Br1330     Br  0.05072684  0.69693798  0.64991012    -0.02400
Br1331     Br  0.10431024  0.76705148  0.53633250     0.00400
Br1332     Br  0.47809411  0.62295753  0.57313450    -0.03900
C1333       C  0.38521703  0.99301613  0.62625473    -0.11300
C1334       C  0.35437229  0.52078658  0.62364558     0.04100
C1335       C  0.33337059  0.51311443  0.60619977    -0.11900
C1336       C  0.34704160  0.97622363  0.59020565     0.19000
C1337       C  0.38301119  0.95597799  0.59433971    -0.08900
C1338       C  0.40190996  0.96458961  0.61230210    -0.01900
H1339       H  0.30720272  0.53180238  0.60331239     0.05500
C1340       C  0.32931743  0.97433308  0.57036680     0.21000
H1341       H  0.43045601  0.95048106  0.61509976     0.10700
C1342       C  0.34639322  0.99955311  0.55541447    -0.15300
C1343       C  0.32698417  0.00538440  0.53746665     0.03700
C1344       C  0.28986089  0.98562178  0.53429801    -0.10600
C1345       C  0.27432572  0.46146218  0.55057418    -0.00600
C1346       C  0.29419127  0.45709158  0.56857122    -0.05800
H1347       H  0.37403281  0.01652347  0.55810625     0.06700
H1348       H  0.24800691  0.44216814  0.54778550     0.10100
Br1349     Br  0.40800710  0.91800055  0.57562378    -0.05500
Br1350     Br  0.33450760  0.56247365  0.64231261    -0.02400
Br1351     Br  0.35108857  0.04340302  0.51848706     0.00400
Br1352     Br  0.27396918  0.41664657  0.58758289    -0.03900
In1353     In  0.87962575  0.37971817  0.24991491     1.36900
C1354       C  0.82660482  0.41824095  0.22689179     0.78200
O1355       O  0.92097646  0.37564314  0.22435209    -0.60200
O1356       O  0.91769882  0.32080644  0.24311487    -0.51200
C1357       C  0.92691487  0.42786391  0.27255000     0.70900
O1358       O  0.91207080  0.44291453  0.25697953    -0.46000
C1359       C  0.83201093  0.33541461  0.27383580     0.75600
O1360       O  0.83996974  0.43641317  0.24228282    -0.57900
O1361       O  0.84472808  0.31917586  0.25792126    -0.48000
O1362       O  0.83954539  0.38043600  0.22379800    -0.54300
C1363       C  0.93213551  0.33733230  0.22771058     0.85800
O1364       O  0.91897818  0.38834941  0.27574269    -0.56200
O1365       O  0.84272130  0.37423804  0.27702109    -0.59500
N1366       N  0.49314658  0.51856857  0.70799538    -0.36000
N1367       N  0.93488949  0.49801561  0.67769654    -0.56500
N1368       N  0.97171926  0.04562261  0.64872201    -0.36000
N1369       N  0.53023887  0.06910219  0.67701248    -0.56500
C1370       C  0.96473894  0.49938051  0.71906769     0.27600
C1371       C  0.51401802  0.03849452  0.71824728     0.27600
C1372       C  0.93635561  0.04170306  0.63987029     0.27600
C1373       C  0.99140590  0.07765014  0.63929474     0.27600
C1374       C  0.92114901  0.47134913  0.69195058     0.36200
C1375       C  0.91310529  0.48937264  0.66134827     0.36200
C1376       C  0.55696819  0.06850932  0.69168311     0.36200
C1377       C  0.55009853  0.07894991  0.66027062     0.36200
C1378       C  0.47047627  0.51100988  0.73876064    -0.21300
C1379       C  0.50257638  0.53889129  0.73945496    -0.21300
C1380       C  0.93315214  0.07198486  0.62488347    -0.21300
C1381       C  0.96795122  0.09495327  0.62461398    -0.21300
C1382       C  0.88914256  0.44750806  0.68474588    -0.22300
C1383       C  0.88458378  0.45827928  0.66530329    -0.22300
C1384       C  0.59413831  0.07799513  0.68420915    -0.22300
C1385       C  0.58976324  0.08371530  0.66414431    -0.22300
C1386       C  0.93495711  0.47053841  0.71175503    -0.17700
C1387       C  0.54756028  0.06298862  0.71186909    -0.17700
C1388       C  0.53147789  0.08760343  0.64217363    -0.17700
C1389       C  0.91649834  0.51169807  0.64334363    -0.17700
H1390       H  0.45319050  0.50145870  0.75143150     0.15200
H1391       H  0.51450197  0.55408362  0.75267116     0.15200
H1392       H  0.90880207  0.07617536  0.61479541     0.15200
H1393       H  0.97548431  0.12065235  0.61442997     0.15200
H1394       H  0.86940409  0.42648716  0.69283942     0.13500
H1395       H  0.86172434  0.44615960  0.65549627     0.13500
H1396       H  0.62154002  0.07995669  0.69233864     0.13500
H1397       H  0.61287240  0.09025428  0.65356987     0.13500
H1398       H  0.49398190  0.00807745  0.69141668     0.26800
H1399       H  0.98402713  0.02310025  0.65824629     0.26800
C1400       C  0.73182156  0.02085074  0.51782693     0.02900
C1401       C  0.76422262  0.49831824  0.51827780     0.02900
C1402       C  0.77748200  0.48092876  0.50026472    -0.17600
C1403       C  0.75706396  0.48880197  0.48268424     0.02900
C1404       C  0.72316764  0.51493646  0.48305873     0.02900
C1405       C  0.71234371  0.03290248  0.50042042    -0.17600
H1406       H  0.68627351  0.05288179  0.50134730     0.04900
H1407       H  0.80386951  0.46137279  0.49991784     0.04900
N1408       N  0.00652098  0.00641274  0.29312925    -0.36000
N1409       N  0.56332590  0.03590411  0.32253324    -0.56500
N1410       N  0.51920141  0.48111945  0.35137302    -0.36000
N1411       N  0.96688988  0.44895164  0.32165047    -0.56500
C1412       C  0.53512878  0.02364523  0.28150885     0.27600
C1413       C  0.98318806  0.47892190  0.28073437     0.27600
C1414       C  0.55264373  0.49162141  0.36106546     0.27600
C1415       C  0.50450167  0.44481066  0.35986346     0.27600
C1416       C  0.56935649  0.06488013  0.30795570     0.36200
C1417       C  0.57535576  0.05569573  0.33941578     0.36200
C1418       C  0.94025653  0.44838329  0.30695501     0.36200
C1419       C  0.94781495  0.43506269  0.33799135     0.36200
C1420       C  0.03148088  0.00660032  0.26253531    -0.21300
C1421       C  0.99989372  0.97789920  0.26279303    -0.21300
C1422       C  0.55964829  0.46144878  0.37576237    -0.21300
C1423       C  0.52927490  0.43156917  0.37487300    -0.21300
C1424       C  0.58490922  0.10342393  0.31565142    -0.22300
C1425       C  0.58816652  0.09764536  0.33573931    -0.22300
C1426       C  0.90390117  0.43446810  0.31404732    -0.22300
C1427       C  0.90871141  0.42662354  0.33388754    -0.22300
C1428       C  0.56322210  0.05539162  0.28774612    -0.17700
C1429       C  0.95005140  0.45405784  0.28689843    -0.17700
C1430       C  0.96677091  0.42738726  0.35603148    -0.17700
C1431       C  0.57807966  0.03417634  0.35758464    -0.17700
H1432       H  0.04981124  0.01358297  0.24985208     0.15200
H1433       H  0.98939783  0.95873678  0.25033419     0.15200
H1434       H  0.58367502  0.46146941  0.38624515     0.15200
H1435       H  0.52520507  0.40393670  0.38447674     0.15200
H1436       H  0.59223549  0.13284486  0.30768391     0.13500
H1437       H  0.59794536  0.12148385  0.34654186     0.13500
H1438       H  0.87688400  0.43027461  0.30574864     0.13500
H1439       H  0.88615824  0.41674176  0.34420119     0.13500
H1440       H  0.49685585  0.51580004  0.30682176     0.26800
H1441       H  0.50438546  0.50128498  0.34161102     0.26800
C1442       C  0.97852825  0.25202714  0.51382207     0.02900
C1443       C  0.51256747  0.22573895  0.51358937     0.02900
C1444       C  0.53223292  0.21799158  0.49570119    -0.17600
C1445       C  0.51890617  0.23628631  0.47802910     0.02900
C1446       C  0.48497633  0.26256524  0.47826968     0.02900
C1447       C  0.96524459  0.27037954  0.49614121    -0.17600
H1448       H  0.93972508  0.29130238  0.49633113     0.04900
H1449       H  0.55778245  0.19712014  0.49548150     0.04900
N1450       N  0.77136207  0.20910141  0.64808524    -0.36000
N1451       N  0.71499321  0.18810126  0.67757725    -0.56500
N1452       N  0.75389830  0.24794117  0.70593081    -0.36000
N1453       N  0.81398204  0.26452687  0.67625152    -0.56500
C1454       C  0.75177303  0.17583952  0.63912113     0.27600
C1455       C  0.80654654  0.21300545  0.63902897     0.27600
C1456       C  0.73210021  0.22262756  0.71823961     0.27600
C1457       C  0.78176557  0.26876929  0.71691830     0.27600
C1458       C  0.69472043  0.17487169  0.66138079     0.36200
C1459       C  0.68884242  0.18968095  0.69249850     0.36200
C1460       C  0.83392067  0.27369059  0.65942311     0.36200
C1461       C  0.82333761  0.29650217  0.68937310     0.36200
C1462       C  0.77471821  0.15861727  0.62405251    -0.21300
C1463       C  0.80939182  0.18199973  0.62405517    -0.21300
C1464       C  0.74607509  0.22785246  0.73738666    -0.21300
C1465       C  0.77714639  0.25730878  0.73658115    -0.21300
C1466       C  0.65539781  0.16919723  0.66583541    -0.22300
C1467       C  0.65164843  0.17793278  0.68569892    -0.22300
C1468       C  0.85628366  0.31124693  0.66184170    -0.22300
C1469       C  0.84945879  0.32578059  0.68074425    -0.22300
C1470       C  0.71270858  0.16303568  0.64345803    -0.17700
C1471       C  0.83368867  0.24735580  0.64222769    -0.17700
C1472       C  0.81127238  0.29744237  0.70947151    -0.17700
C1473       C  0.69916350  0.19648683  0.71247780    -0.17700
H1474       H  0.76714426  0.13261171  0.61379990     0.15200
H1475       H  0.83345680  0.17753181  0.61377967     0.15200
H1476       H  0.73512907  0.21216614  0.75058443     0.15200
H1477       H  0.79492568  0.26812592  0.74899175     0.15200
H1478       H  0.63205745  0.16013029  0.65575451     0.13500
H1479       H  0.62470908  0.17591088  0.69418937     0.13500
H1480       H  0.87570897  0.32638895  0.65116871     0.13500
H1481       H  0.86286243  0.35427822  0.68739140     0.13500
H1482       H  0.75935856  0.23162966  0.65789249     0.26800
H1483       H  0.74825421  0.25338749  0.69104383     0.26800
N1484       N  0.75434207  0.25708141  0.29249153    -0.36000
N1485       N  0.78939846  0.31392445  0.32303914    -0.56500
N1486       N  0.73742652  0.27816385  0.35233745    -0.36000
N1487       N  0.69849288  0.22637504  0.32194317    -0.56500
C1488       C  0.77485021  0.28588128  0.28138724     0.27600
C1489       C  0.72626188  0.23863502  0.28082861     0.27600
C1490       C  0.75220239  0.31323509  0.36209402     0.27600
C1491       C  0.70378797  0.26647674  0.36154928     0.27600
C1492       C  0.81621570  0.31684492  0.30840917     0.36200
C1493       C  0.80797990  0.32679505  0.33981142     0.36200
C1494       C  0.69282470  0.19711283  0.30718948     0.36200
C1495       C  0.68486141  0.20730760  0.33856125     0.36200
C1496       C  0.75998942  0.28533701  0.26227180    -0.21300
C1497       C  0.72929912  0.25543817  0.26191995    -0.21300
C1498       C  0.72783474  0.32381050  0.37783729    -0.21300
C1499       C  0.69726049  0.29414536  0.37753277    -0.21300
C1500       C  0.85213395  0.33101632  0.31600712    -0.22300
C1501       C  0.84685840  0.33687687  0.33601376    -0.22300
C1502       C  0.67624480  0.15906783  0.31456552    -0.22300
C1503       C  0.67133150  0.16564396  0.33451727    -0.22300
C1504       C  0.80736242  0.31118528  0.28813737    -0.17700
C1505       C  0.69910889  0.20615849  0.28700077    -0.17700
C1506       C  0.68116272  0.22909064  0.35680303    -0.17700
C1507       C  0.78874871  0.33332780  0.35797282    -0.17700
H1508       H  0.76991342  0.30464327  0.24988356     0.15200
H1509       H  0.71115325  0.24742336  0.24923556     0.15200
H1510       H  0.73203827  0.34955197  0.38869533     0.15200
H1511       H  0.67354512  0.29263607  0.38818446     0.15200
H1512       H  0.87926369  0.33644365  0.30797110     0.13500
H1513       H  0.86897167  0.34661052  0.34667803     0.13500
H1514       H  0.66887768  0.12956094  0.30645303     0.13500
H1515       H  0.66028338  0.14228316  0.34502456     0.13500
H1516       H  0.76134084  0.24785412  0.30683034     0.26800
H1517       H  0.75184250  0.26002117  0.34152085     0.26800
C1518       C  0.99124598  0.46235812  0.01587616     0.02900
C1519       C  0.52836591  0.48355261  0.01588498     0.02900
C1520       C  0.53428011  0.02399205  0.00000250    -0.17600
C1521       C  0.01162028  0.01998267  0.98275500     0.02900
C1522       C  0.98415298  0.47691009  0.98068050     0.02900
C1523       C  0.96901108  0.46066551  0.99849599    -0.17600
H1524       H  0.93927973  0.44761707  0.99902245     0.04900
H1525       H  0.56371813  0.03777723  0.99919394     0.04900
N1526       N  0.75981260  0.01634979  0.85058837    -0.36000
N1527       N  0.81399629  0.47794408  0.81942233    -0.56500
N1528       N  0.75610864  0.51093918  0.79149682    -0.36000
N1529       N  0.70267026  0.04329241  0.82282362    -0.56500
C1530       C  0.78709121  0.99430133  0.86072430     0.27600
C1531       C  0.72809924  0.02007873  0.86241371     0.27600
C1532       C  0.77742238  0.48489225  0.77919962     0.27600
C1533       C  0.72588029  0.02904978  0.78059902     0.27600
C1534       C  0.84137605  0.48295429  0.83374804     0.36200
C1535       C  0.83337393  0.47413341  0.80220990     0.36200
C1536       C  0.68514563  0.05865475  0.83943577     0.36200
C1537       C  0.68544584  0.06344036  0.80748287     0.36200
C1538       C  0.77242893  0.98241872  0.87898628    -0.21300
C1539       C  0.73507208  0.99876942  0.88010765    -0.21300
C1540       C  0.75847933  0.48303178  0.76098901    -0.21300
C1541       C  0.72560253  0.50899101  0.76235546    -0.21300
C1542       C  0.87876904  0.48229941  0.82570922    -0.22300
C1543       C  0.87372471  0.47602509  0.80563760    -0.22300
C1544       C  0.65487277  0.08619796  0.83468349    -0.22300
C1545       C  0.65483960  0.08910759  0.81446482    -0.22300
C1546       C  0.83160348  0.48505500  0.85391835    -0.17700
C1547       C  0.69753027  0.04960470  0.85886450    -0.17700
C1548       C  0.69582577  0.05785345  0.78725964    -0.17700
C1549       C  0.81465685  0.46585619  0.78384112    -0.17700
H1550       H  0.78810500  0.96640028  0.89076035     0.15200
H1551       H  0.71647399  0.99660539  0.89298299     0.15200
H1552       H  0.76734736  0.46628964  0.74766545     0.15200
H1553       H  0.70494758  0.51454999  0.75052103     0.15200
H1554       H  0.90655711  0.48512413  0.83344069     0.13500
H1555       H  0.89705804  0.47392340  0.79479046     0.13500
H1556       H  0.63524196  0.10250082  0.84481209     0.13500
H1557       H  0.63415356  0.10757633  0.80595570     0.13500
H1558       H  0.76602181  0.03576201  0.83840314     0.26800
H1559       H  0.76440004  0.52202308  0.80542647     0.26800
N1560       N  0.95283281  0.20519113  0.84416808    -0.36000
N1561       N  0.51676444  0.18194362  0.81933237    -0.56500
N1562       N  0.49043621  0.24750639  0.79068938    -0.36000
N1563       N  0.92359526  0.26681432  0.81674269    -0.56500
C1564       C  0.96669288  0.16934861  0.85304072     0.27600
C1565       C  0.91637492  0.21199616  0.85124690     0.27600
C1566       C  0.51409156  0.22199393  0.77942260     0.27600
C1567       C  0.96584088  0.26894072  0.77844872     0.27600
C1568       C  0.53104617  0.16939923  0.83703425     0.36200
C1569       C  0.54797611  0.18679971  0.80726085     0.36200
C1570       C  0.90324127  0.27904885  0.83300425     0.36200
C1571       C  0.92235686  0.30056708  0.80419098     0.36200
C1572       C  0.93801697  0.15174902  0.86529448    -0.21300
C1573       C  0.90616831  0.17905225  0.86427837    -0.21300
C1574       C  0.50450258  0.22760295  0.75965621    -0.21300
C1575       C  0.47426654  0.25748185  0.75905244    -0.21300
C1576       C  0.57159919  0.16676960  0.83633310    -0.22300
C1577       C  0.58237757  0.17737956  0.81730198    -0.22300
C1578       C  0.88867353  0.32065211  0.83081424    -0.22300
C1579       C  0.90067596  0.33431268  0.81243849    -0.22300
C1580       C  0.50688439  0.15883360  0.85328732    -0.17700
C1581       C  0.89654747  0.25170815  0.84926568    -0.17700
C1582       C  0.93661862  0.29893546  0.78461800    -0.17700
C1583       C  0.54482401  0.19553884  0.78688532    -0.17700
H1584       H  0.94095489  0.12424670  0.87508306     0.15200
H1585       H  0.87970699  0.17665616  0.87312455     0.15200
H1586       H  0.51757397  0.21184352  0.74693341     0.15200
H1587       H  0.45978767  0.26893883  0.74585899     0.15200
H1588       H  0.59113408  0.15860253  0.84831408     0.13500
H1589       H  0.61207050  0.17905992  0.81157545     0.13500
H1590       H  0.87089925  0.33887273  0.84120635     0.13500
H1591       H  0.89403824  0.36539692  0.80585819     0.13500
H1592       H  0.97023095  0.22850529  0.83712046     0.26800
H1593       H  0.99287942  0.25258455  0.80588407     0.26800
In1594     In  0.63135163  0.12911459  0.24915979     1.36900
C1595       C  0.58786826  0.07923674  0.27314287     0.78200
O1596       O  0.63480311  0.08137391  0.22373550    -0.60200
O1597       O  0.68474583  0.08676494  0.24205023    -0.51200
C1598       C  0.59147143  0.18618009  0.22682213     0.70900
O1599       O  0.57721801  0.16974152  0.24224855    -0.46000
C1600       C  0.67481254  0.18140064  0.27240455     0.75600
O1601       O  0.57548284  0.09166356  0.25658694    -0.57900
O1602       O  0.68768254  0.16683800  0.25618865    -0.48000
O1603       O  0.62300230  0.09016405  0.27672916    -0.54300
C1604       C  0.66968942  0.06962197  0.22682635     0.85800
O1605       O  0.62660784  0.17531876  0.22356870    -0.56200
O1606       O  0.63946639  0.17138392  0.27586612    -0.59500
N1607       N  0.74666851  0.99004425  0.20825328    -0.36000
N1608       N  0.68658025  0.01120176  0.17915390    -0.56500
N1609       N  0.72008320  0.45645943  0.15076967    -0.36000
N1610       N  0.77756857  0.42948929  0.17882224    -0.56500
C1611       C  0.71921135  0.00968989  0.21972685     0.27600
C1612       C  0.76735216  0.46503740  0.21950496     0.27600
C1613       C  0.68568405  0.46506919  0.14181904     0.27600
C1614       C  0.73533307  0.42132546  0.14158830     0.27600
C1615       C  0.68251361  0.04381462  0.19249985     0.36200
C1616       C  0.67084675  0.02565853  0.16207152     0.36200
C1617       C  0.80620605  0.43109608  0.19254868     0.36200
C1618       C  0.79477955  0.41600311  0.16187743     0.36200
C1619       C  0.72399289  0.99650290  0.23913165    -0.21300
C1620       C  0.75519633  0.96777616  0.23929492    -0.21300
C1621       C  0.67857307  0.43455886  0.12692869    -0.21300
C1622       C  0.71005121  0.40681680  0.12680429    -0.21300
C1623       C  0.66485472  0.07921904  0.18373398    -0.22300
C1624       C  0.65662090  0.06738629  0.16454370    -0.22300
C1625       C  0.84182222  0.41871637  0.18424629    -0.22300
C1626       C  0.83449710  0.40960552  0.16465876    -0.22300
C1627       C  0.69133247  0.04031043  0.21284875    -0.17700
C1628       C  0.79949188  0.43946651  0.21278419    -0.17700
C1629       C  0.77397505  0.40678613  0.14442162    -0.17700
C1630       C  0.66764370  0.00040446  0.14465095    -0.17700
H1631       H  0.70670599  0.00623578  0.25182438     0.15200
H1632       H  0.76651622  0.95133779  0.25215598     0.15200
H1633       H  0.65427463  0.43354466  0.11659876     0.15200
H1634       H  0.71464347  0.38027938  0.11644511     0.15200
H1635       H  0.65958347  0.11061929  0.19044278     0.13500
H1636       H  0.64252359  0.08731813  0.15357194     0.13500
H1637       H  0.87012244  0.41689444  0.19151009     0.13500
H1638       H  0.85573599  0.40012129  0.15360340     0.13500
H1639       H  0.74985093  0.49715576  0.19302484     0.26800
H1640       H  0.73535296  0.47769396  0.16016130     0.26800
C1641       C  0.73994902  0.21646705  0.98220763     0.02900
C1642       C  0.77309798  0.24454438  0.98148017     0.02900
C1643       C  0.78709845  0.26437298  0.99889408    -0.17600
C1644       C  0.76806597  0.25700739  0.01695726     0.02900
C1645       C  0.73465825  0.22917077  0.01757512     0.02900
C1646       C  0.72100657  0.20901401  0.00024007    -0.17600
H1647       H  0.69546350  0.18756683  0.00077161     0.04900
H1648       H  0.81217887  0.28645637  0.99829715     0.04900
In1649     In  0.62389427  0.12944538  0.75022890     1.36900
C1650       C  0.57297158  0.17291925  0.77344722     0.78200
O1651       O  0.58630460  0.12430915  0.72311053    -0.60200
O1652       O  0.58559926  0.07027627  0.74227266    -0.51200
C1653       C  0.67479648  0.17264215  0.72719219     0.70900
O1654       O  0.66103489  0.18951116  0.74275265    -0.46000
C1655       C  0.67276204  0.08329582  0.77271907     0.75600
O1656       O  0.58523313  0.18799149  0.75729432    -0.57900
O1657       O  0.65345138  0.06626808  0.75870457    -0.48000
O1658       O  0.58673732  0.13612203  0.77748372    -0.54300
C1659       C  0.57347701  0.08634564  0.72633283     0.85800
O1660       O  0.66406744  0.13367021  0.72421839    -0.56200
O1661       O  0.66861536  0.12398215  0.77441865    -0.59500
In1662     In  0.87587656  0.38028774  0.74694473     1.36900
C1663       C  0.91618914  0.32676223  0.77017010     0.78200
O1664       O  0.86321418  0.41158052  0.77595440    -0.60200
O1665       O  0.82682269  0.42896531  0.75202196    -0.51200
C1666       C  0.91627716  0.43809458  0.72512036     0.70900
O1667       O  0.90433366  0.44673860  0.74224346    -0.46000
C1668       C  0.83340525  0.32682223  0.72333097     0.75600
O1669       O  0.93339555  0.35262281  0.75855190    -0.57900
O1670       O  0.81755089  0.35005018  0.73654771    -0.48000
O1671       O  0.87922648  0.32808639  0.76950431    -0.54300
C1672       C  0.83526956  0.43498027  0.77006132     0.85800
O1673       O  0.90944797  0.39938649  0.71975169    -0.56200
O1674       O  0.87019419  0.33118693  0.72244197    -0.59500
N1675       N  0.01216947  0.26231934  0.20819678    -0.36000
N1676       N  0.97344312  0.31654216  0.17837404    -0.56500
N1677       N  0.52702012  0.28556904  0.14877255    -0.36000
N1678       N  0.56982025  0.23701041  0.17823618    -0.56500
C1679       C  0.99046306  0.28901365  0.21987341     0.27600
C1680       C  0.54021362  0.24384457  0.21956961     0.27600
C1681       C  0.50838994  0.31728573  0.13887007     0.27600
C1682       C  0.56057344  0.27699662  0.13888861     0.27600
C1683       C  0.94738992  0.31754755  0.19337650     0.36200
C1684       C  0.95292461  0.32598295  0.16186157     0.36200
C1685       C  0.57606908  0.20696858  0.19233327     0.36200
C1686       C  0.58494305  0.22029992  0.16131765     0.36200
C1687       C  0.00454654  0.28701569  0.23908876    -0.21300
C1688       C  0.03582996  0.25838066  0.23891268    -0.21300
C1689       C  0.53036495  0.32916115  0.12244948    -0.21300
C1690       C  0.56337293  0.30361524  0.12244337    -0.21300
C1691       C  0.91021104  0.32754260  0.18633261    -0.22300
C1692       C  0.91376878  0.33237007  0.16625653    -0.22300
C1693       C  0.59437822  0.17091944  0.18417830    -0.22300
C1694       C  0.60088371  0.17978289  0.16460107    -0.22300
C1695       C  0.95745826  0.31338822  0.21349323    -0.17700
C1696       C  0.56845095  0.21324165  0.21271713    -0.17700
C1697       C  0.58597001  0.24231359  0.14318200    -0.17700
C1698       C  0.97011162  0.33188788  0.14319007    -0.17700
H1699       H  0.99348223  0.30426345  0.25191796     0.15200
H1700       H  0.05348004  0.24967692  0.25156028     0.15200
H1701       H  0.52283602  0.35278751  0.11130870     0.15200
H1702       H  0.58610391  0.30367964  0.11123942     0.15200
H1703       H  0.88330423  0.33050634  0.19477546     0.13500
H1704       H  0.89039618  0.33904856  0.15596368     0.13500
H1705       H  0.60116678  0.14092999  0.19157049     0.13500
H1706       H  0.61473099  0.15857504  0.15388406     0.13500
H1707       H  0.50607240  0.25420857  0.19355408     0.26800
H1708       H  0.51479680  0.26654760  0.15989494     0.26800
C1709       C  0.61384476  0.22838992  0.12760871    -0.11300
C1710       C  0.64982063  0.25076770  0.12499567     0.04100
C1711       C  0.67108275  0.24496302  0.10752669    -0.11900
C1712       C  0.65718312  0.21650037  0.09274989     0.19000
C1713       C  0.62289585  0.19158862  0.09600156    -0.08900
C1714       C  0.60130774  0.19773959  0.11337674    -0.01900
H1715       H  0.69723389  0.26456658  0.10496785     0.05500
C1716       C  0.67560997  0.21778018  0.07310638     0.21000
H1717       H  0.57356724  0.18055330  0.11527146     0.10700
C1718       C  0.70627386  0.18929577  0.06848643    -0.15300
C1719       C  0.72475672  0.19124640  0.05003400     0.03700
C1720       C  0.71279009  0.22235491  0.03615398    -0.10600
C1721       C  0.68109519  0.24962668  0.04053478    -0.00600
C1722       C  0.66259895  0.24768100  0.05892348    -0.05800
H1723       H  0.71587857  0.16574025  0.07926049     0.06700
H1724       H  0.67155977  0.27338369  0.02983432     0.10100
Br1725     Br  0.60283006  0.15232967  0.07616006    -0.05500
Br1726     Br  0.66894563  0.29250980  0.14405534    -0.02400
Br1727     Br  0.76564810  0.15058069  0.04424142     0.00400
Br1728     Br  0.62023778  0.28702312  0.06427238    -0.03900
C1729       C  0.78099863  0.28126989  0.03483461    -0.11300
C1730       C  0.81403174  0.26872189  0.04589416     0.04100
C1731       C  0.82146772  0.28840500  0.06430022    -0.11900
C1732       C  0.79711596  0.32155256  0.07154518     0.19000
C1733       C  0.76517860  0.33543115  0.05994361    -0.08900
C1734       C  0.75750930  0.31536255  0.04176636    -0.01900
H1735       H  0.84565341  0.27712190  0.07320799     0.05500
C1736       C  0.80362644  0.34039701  0.09149142     0.21000
H1737       H  0.73224236  0.32544484  0.03325086     0.10700
C1738       C  0.81171416  0.38520087  0.09328551    -0.15300
C1739       C  0.80604518  0.40687584  0.11127948     0.03700
C1740       C  0.79293560  0.38342190  0.12781973    -0.10600
C1741       C  0.78960028  0.33789954  0.12667433    -0.00600
C1742       C  0.79492983  0.31619453  0.10860739    -0.05800
H1743       H  0.81863864  0.40393118  0.08023047     0.06700
H1744       H  0.77942208  0.31974586  0.13939025     0.10100
Br1745     Br  0.72914096  0.37932921  0.06880936    -0.05500
Br1746     Br  0.84914808  0.22448804  0.03665104    -0.02400
Br1747     Br  0.81092270  0.46926040  0.11215488     0.00400
Br1748     Br  0.78510428  0.25450950  0.10761580    -0.03900
C1749       C  0.87429955  0.26728031  0.86667958    -0.11300
C1750       C  0.83410152  0.25769668  0.86910225     0.04100
C1751       C  0.81701351  0.26121345  0.88788571    -0.11900
C1752       C  0.83962373  0.27473005  0.90429563     0.19000
C1753       C  0.87913655  0.28765833  0.90138425    -0.08900
C1754       C  0.89604174  0.28392823  0.88267743    -0.01900
H1755       H  0.78668079  0.25096079  0.88988780     0.05500
C1756       C  0.82328967  0.26981214  0.92447537     0.21000
H1757       H  0.92708403  0.29131680  0.88086047     0.10700
C1758       C  0.84201501  0.24143446  0.93761452    -0.15300
C1759       C  0.82708493  0.23442321  0.95657018     0.03700
C1760       C  0.79209736  0.25480285  0.96242267    -0.10600
C1761       C  0.77348108  0.28345967  0.94945731    -0.00600
C1762       C  0.78881062  0.29120122  0.93060568    -0.05800
H1763       H  0.86824369  0.22430700  0.93301944     0.06700
H1764       H  0.74678678  0.29968193  0.95400512     0.10100
Br1765     Br  0.91214087  0.30812054  0.92260416    -0.05500
Br1766     Br  0.80282014  0.23633657  0.84749540    -0.02400
Br1767     Br  0.85490538  0.19610892  0.97378876     0.00400
Br1768     Br  0.76206885  0.33187141  0.91406930    -0.03900
C1769       C  0.72568570  0.19323703  0.96437041    -0.11300
C1770       C  0.69340313  0.20835543  0.95345128     0.04100
C1771       C  0.68163644  0.18615586  0.93625575    -0.11900
C1772       C  0.70118365  0.14842043  0.93004089     0.19000
C1773       C  0.73382884  0.13371723  0.94085567    -0.08900
C1774       C  0.74565831  0.15599982  0.95795981    -0.01900
H1775       H  0.65741858  0.19851241  0.92761564     0.05500
C1776       C  0.69003510  0.12707905  0.91122412     0.21000
H1777       H  0.77090522  0.14465430  0.96614656     0.10700
C1778       C  0.70283473  0.14620851  0.89365034    -0.15300
C1779       C  0.70198141  0.12266834  0.87591335     0.03700
C1780       C  0.68675446  0.07955660  0.87545941    -0.10600
C1781       C  0.66931536  0.06279075  0.89265241    -0.00600
C1782       C  0.67191044  0.08560987  0.91061313    -0.05800
H1783       H  0.71678618  0.17814722  0.89404936     0.06700
H1784       H  0.65722278  0.03004925  0.89254818     0.10100
Br1785     Br  0.76468572  0.08509674  0.93212468    -0.05500
Br1786     Br  0.66548795  0.25978187  0.96116659    -0.02400
Br1787     Br  0.72729449  0.14920456  0.85361545     0.00400
Br1788     Br  0.65485829  0.05672904  0.93420102    -0.03900
C1789       C  0.52328457  0.13899439  0.87151695    -0.11300
C1790       C  0.01796732  0.15922928  0.89008583     0.04100
C1791       C  0.02649858  0.13672177  0.90729483    -0.11900
C1792       C  0.54251429  0.09461726  0.90686972     0.19000
C1793       C  0.55037501  0.07545425  0.88809443    -0.08900
C1794       C  0.54049471  0.09764515  0.87072076    -0.01900
H1795       H  0.01833880  0.15178670  0.92119120     0.05500
C1796       C  0.54574403  0.07099357  0.92615353     0.21000
H1797       H  0.54501932  0.08190023  0.85651803     0.10700
C1798       C  0.03158183  0.02784427  0.92779723    -0.15300
C1799       C  0.02651889  0.00839811  0.94627477     0.03700
C1800       C  0.02953249  0.03402611  0.96359628    -0.10600
C1801       C  0.54692831  0.07557513  0.96220408    -0.00600
C1802       C  0.55680305  0.09318069  0.94382247    -0.05800
H1803       H  0.02242812  0.00946157  0.91489600     0.06700
H1804       H  0.55179831  0.09510419  0.97540506     0.10100
Br1805     Br  0.57384703  0.01925623  0.88465063    -0.05500
Br1806     Br  0.99770222  0.21723924  0.89312907    -0.02400
Br1807     Br  0.03358543  0.42737607  0.94217571     0.00400
Br1808     Br  0.58538148  0.14760072  0.94404393    -0.03900
C1809       C  0.95753578  0.47982258  0.96326813    -0.11300
C1810       C  0.93824151  0.44301989  0.95492494     0.04100
C1811       C  0.91901937  0.44671865  0.93672902    -0.11900
C1812       C  0.92002931  0.48601135  0.92617669     0.19000
C1813       C  0.92907471  0.04554239  0.93659054    -0.08900
C1814       C  0.94377380  0.04561727  0.95581453    -0.01900
H1815       H  0.90432085  0.41830302  0.93047204     0.05500
C1816       C  0.90181594  0.48789217  0.90623932     0.21000
H1817       H  0.95808761  0.07491413  0.96142851     0.10700
C1818       C  0.86906018  0.03905540  0.90277736    -0.15300
C1819       C  0.85130207  0.03848667  0.88430627     0.03700
C1820       C  0.86126138  0.49040842  0.86988968    -0.10600
C1821       C  0.88898126  0.45781705  0.87333427    -0.00600
C1822       C  0.91016571  0.45713231  0.89111368    -0.05800
H1823       H  0.86200361  0.06523335  0.91296644     0.06700
H1824       H  0.89316758  0.43204376  0.86251677     0.10100
Br1825     Br  0.93808935  0.09725608  0.92138653    -0.05500
Br1826     Br  0.94019303  0.38608918  0.96649281    -0.02400
Br1827     Br  0.82012516  0.08802088  0.87736130     0.00400
Br1828     Br  0.95016929  0.41381661  0.89371268    -0.03900
C1829       C  0.64219738  0.01468725  0.12822365    -0.11300
C1830       C  0.65627540  0.04452983  0.11407599     0.04100
C1831       C  0.63595671  0.04962836  0.09628426    -0.11900
C1832       C  0.60197624  0.02487490  0.09230435     0.19000
C1833       C  0.58093597  0.49849368  0.10905800    -0.08900
C1834       C  0.60092716  0.49926680  0.12710732    -0.01900
H1835       H  0.64771227  0.07136578  0.08517482     0.05500
C1836       C  0.58332849  0.02670930  0.07267874     0.21000
H1837       H  0.58891962  0.48121201  0.13945901     0.10700
C1838       C  0.60140643  0.48739799  0.05847739    -0.15300
C1839       C  0.58576267  0.47895275  0.03969576     0.03700
C1840       C  0.54351279  0.01772178  0.03639559    -0.10600
C1841       C  0.52720722  0.04220870  0.05195133    -0.00600
C1842       C  0.54639424  0.04607895  0.07011246    -0.05800
H1843       H  0.62969330  0.47388178  0.06233407     0.06700
H1844       H  0.49878943  0.05730909  0.05014192     0.10100
Br1845     Br  0.53423233  0.46325687  0.10721292    -0.05500
Br1846     Br  0.70472812  0.07620776  0.11768396    -0.02400
Br1847     Br  0.61646376  0.44477648  0.02161340     0.00400
Br1848     Br  0.52025694  0.07628966  0.09123510    -0.03900
C1849       C  0.97517163  0.44243542  0.03409541    -0.11300
C1850       C  0.49385357  0.40679182  0.04288300     0.04100
C1851       C  0.48103070  0.39169723  0.06113539    -0.11900
C1852       C  0.94783077  0.40934896  0.07044887     0.19000
C1853       C  0.92813082  0.44404865  0.06132400    -0.08900
C1854       C  0.94198051  0.46041313  0.04329149    -0.01900
H1855       H  0.49686547  0.36535110  0.06801430     0.05500
C1856       C  0.93649387  0.39128059  0.08994277     0.21000
H1857       H  0.92720729  0.48766297  0.03655797     0.10700
C1858       C  0.94053474  0.41762922  0.10693017    -0.15300
C1859       C  0.94666150  0.39872320  0.12546774     0.03700
C1860       C  0.94797091  0.35300236  0.12703338    -0.10600
C1861       C  0.93737541  0.32711058  0.11070896    -0.00600
C1862       C  0.93202899  0.34580552  0.09220326    -0.05800
H1863       H  0.44358966  0.45263891  0.10549027     0.06700
H1864       H  0.93787548  0.29190923  0.11187225     0.10100
Br1865     Br  0.88221836  0.46982669  0.07251769    -0.05500
Br1866     Br  0.53512864  0.37527822  0.03005751    -0.02400
Br1867     Br  0.45917423  0.43613698  0.14749905     0.00400
Br1868     Br  0.92529709  0.30715473  0.06998367    -0.03900
C1869       C  0.85986978  0.25854353  0.62548220    -0.11300
C1870       C  0.89677869  0.23890609  0.62296463     0.04100
C1871       C  0.91692468  0.24359617  0.60504268    -0.11900
C1872       C  0.90063202  0.26759408  0.58948188     0.19000
C1873       C  0.86404278  0.28805670  0.59231006    -0.08900
C1874       C  0.84425295  0.28371729  0.61026408    -0.01900
H1875       H  0.94452216  0.22680196  0.60291432     0.05500
C1876       C  0.92011894  0.26714699  0.56988340     0.21000
H1877       H  0.81549213  0.29819123  0.61202545     0.10700
C1878       C  0.90029239  0.24771865  0.55382881    -0.15300
C1879       C  0.91817690  0.24418239  0.53529969     0.03700
C1880       C  0.95673603  0.26033416  0.53251814    -0.10600
C1881       C  0.97638351  0.28045420  0.54849907    -0.00600
C1882       C  0.95866090  0.28340187  0.56713580    -0.05800
H1883       H  0.87110202  0.23395037  0.55589608     0.06700
H1884       H  0.00618929  0.29258181  0.54660716     0.10100
Br1885     Br  0.83858727  0.32036476  0.57187961    -0.05500
Br1886     Br  0.91893089  0.20253347  0.64291864    -0.02400
Br1887     Br  0.88993579  0.21332117  0.51491681     0.00400
Br1888     Br  0.98860523  0.30910330  0.58835583    -0.03900
C1889       C  0.54067402  0.22746733  0.45940191    -0.11300
C1890       C  0.57913375  0.24377644  0.45649963     0.04100
C1891       C  0.59850009  0.23600902  0.43862061    -0.11900
C1892       C  0.57998709  0.21263697  0.42329063     0.19000
C1893       C  0.54161277  0.19614404  0.42611563    -0.08900
C1894       C  0.52229510  0.20350363  0.44412344    -0.01900
H1895       H  0.62777166  0.24946146  0.43641182     0.05500
C1896       C  0.60065655  0.20898349  0.40413942     0.21000
H1897       H  0.49273530  0.19079920  0.44617609     0.10700
C1898       C  0.63399061  0.18249728  0.40263239    -0.15300
C1899       C  0.65928711  0.18586090  0.38635233     0.03700
C1900       C  0.65058030  0.21506125  0.37107717    -0.10600
C1901       C  0.61562134  0.23884787  0.37185525    -0.00600
C1902       C  0.59142384  0.23709222  0.38850661    -0.05800
H1903       H  0.64175393  0.16151473  0.41477759     0.06700
H1904       H  0.60945052  0.26240695  0.36044713     0.10100
Br1905     Br  0.51470728  0.16362275  0.40580453    -0.05500
Br1906     Br  0.60548428  0.27952060  0.47585592    -0.02400
Br1907     Br  0.70760800  0.15417373  0.38655613     0.00400
Br1908     Br  0.55049759  0.27931659  0.39072171    -0.03900
C1909       C  0.97221286  0.28535774  0.46026247    -0.11300
C1910       C  0.93842420  0.27250035  0.44958783     0.04100
C1911       C  0.92938150  0.29314497  0.43177155    -0.11900
C1912       C  0.95316633  0.32729159  0.42464079     0.19000
C1913       C  0.48715441  0.33968162  0.43542643    -0.08900
C1914       C  0.49616566  0.31894365  0.45306321    -0.01900
H1915       H  0.90377270  0.28247061  0.42347424     0.05500
C1916       C  0.94282061  0.35041178  0.40618671     0.21000
H1917       H  0.52255859  0.32847599  0.46105697     0.10700
C1918       C  0.93690825  0.39558725  0.40717502    -0.15300
C1919       C  0.93946648  0.42096835  0.39018756     0.03700
C1920       C  0.94783480  0.40115974  0.37184552    -0.10600
C1921       C  0.94775175  0.35546200  0.37040352    -0.00600
C1922       C  0.44477858  0.32989591  0.38746547    -0.05800
H1923       H  0.93389719  0.41159904  0.42142445     0.06700
H1924       H  0.45347240  0.33983544  0.35628981     0.10100
Br1925     Br  0.52415186  0.38265173  0.42629475    -0.05500
Br1926     Br  0.90480671  0.22603644  0.45842511    -0.02400
Br1927     Br  0.93746522  0.48318303  0.39304570     0.00400
Br1928     Br  0.44732972  0.26771516  0.38456482    -0.03900
C1929       C  0.70456287  0.03115321  0.46370749    -0.11300
C1930       C  0.70729068  0.07323434  0.45556345     0.04100
C1931       C  0.68802916  0.08228866  0.43774680    -0.11900
C1932       C  0.66723690  0.04928799  0.42762178     0.19000
C1933       C  0.65640120  0.50187712  0.43885359    -0.08900
C1934       C  0.67522044  0.49436621  0.45683489    -0.01900
H1935       H  0.68993858  0.11472740  0.43161918     0.05500
C1936       C  0.64657331  0.05849896  0.40899652     0.21000
H1937       H  0.66942937  0.46427640  0.46461525     0.10700
C1938       C  0.66207732  0.53842183  0.39197841    -0.15300
C1939       C  0.64072413  0.53653679  0.37430214     0.03700
C1940       C  0.60305753  0.05168249  0.37380134    -0.10600
C1941       C  0.58461794  0.06412655  0.39150493    -0.00600
C1942       C  0.60600278  0.06711760  0.40909091    -0.05800
H1943       H  0.69254286  0.52835607  0.39206373     0.06700
H1944       H  0.55292618  0.06756120  0.39195525     0.10100
Br1945     Br  0.62198048  0.45724328  0.42849624    -0.05500
Br1946     Br  0.73898839  0.11817491  0.46760407    -0.02400
Br1947     Br  0.66685319  0.51611578  0.35092259     0.00400
Br1948     Br  0.57784462  0.07710749  0.43326218    -0.03900
C1949       C  0.77117609  0.46931371  0.46398050    -0.11300
C1950       C  0.75875954  0.42736776  0.45810351     0.04100
C1951       C  0.77009101  0.41086767  0.43972017    -0.11900
C1952       C  0.79505718  0.43482530  0.42716370     0.19000
C1953       C  0.80746537  0.47696936  0.43308426    -0.08900
C1954       C  0.79542342  0.49386975  0.45140353    -0.01900
H1955       H  0.75954059  0.37883285  0.43522118     0.05500
C1956       C  0.80652800  0.41450410  0.40802063     0.21000
H1957       H  0.80489225  0.52631947  0.45584853     0.10700
C1958       C  0.79433195  0.43312519  0.39018173    -0.15300
C1959       C  0.79419444  0.40851762  0.37263036     0.03700
C1960       C  0.80499846  0.36429601  0.37298072    -0.10600
C1961       C  0.82166975  0.34746441  0.39023083    -0.00600
C1962       C  0.82300343  0.37252040  0.40760336    -0.05800
H1963       H  0.78193041  0.46550698  0.39016214     0.06700
H1964       H  0.83058282  0.31367688  0.39062610     0.10100
Br1965     Br  0.84128980  0.51234922  0.41706206    -0.05500
Br1966     Br  0.72623656  0.39146422  0.47465708    -0.02400
Br1967     Br  0.77435624  0.43467493  0.34905413     0.00400
Br1968     Br  0.84395233  0.34696165  0.43106175    -0.03900
C1969       C  0.71711492  0.03678449  0.53722186    -0.11300
C1970       C  0.73162816  0.07592469  0.54545783     0.04100
C1971       C  0.72002292  0.08869260  0.56439662    -0.11900
C1972       C  0.69341440  0.06343446  0.57547235     0.19000
C1973       C  0.67810033  0.02453629  0.56711815    -0.08900
C1974       C  0.68998813  0.01157335  0.54806126    -0.01900
H1975       H  0.73192809  0.11875402  0.57058493     0.05500
C1976       C  0.68277871  0.08020729  0.59541344     0.21000
H1977       H  0.67852957  0.98142209  0.54178430     0.10700
C1978       C  0.66577605  0.12173539  0.59655874    -0.13300
C1979       C  0.67099727  0.14810356  0.61334799     0.03700
C1980       C  0.69255798  0.13245929  0.62949761    -0.10600
C1981       C  0.70363150  0.08853128  0.62963030    -0.00600
C1982       C  0.69936165  0.06248627  0.61266006    -0.05800
H1983       H  0.65246690  0.13561294  0.58351867     0.06700
H1984       H  0.71995772  0.07610356  0.64209579     0.10100
Br1985     Br  0.64089212  0.98848597  0.58089796    -0.05500
Br1986     Br  0.76694663  0.11346417  0.53129983    -0.02400
Br1987     Br  0.65345261  0.20717260  0.61237340     0.00400
Br1988     Br  0.72227352  0.00580839  0.61311853    -0.03900
C1989       C  0.55216362  0.10944887  0.62556524    -0.11300
C1990       C  0.54994825  0.15508877  0.62376492     0.04100
C1991       C  0.55084340  0.17407229  0.60500621    -0.11900
C1992       C  0.55412790  0.14797240  0.58798149     0.19000
C1993       C  0.56127813  0.10315100  0.58992636    -0.08900
C1994       C  0.56042323  0.08416173  0.60866692    -0.01900
H1995       H  0.54562066  0.20869611  0.60362160     0.05500
C1996       C  0.54457263  0.16658789  0.56850421     0.21000
H1997       H  0.56177396  0.04899971  0.60979849     0.10700
C1998       C  0.57109523  0.19527916  0.55931421    -0.15300
C1999       C  0.56194778  0.21385799  0.54103791     0.03700
C2000       C  0.52584830  0.20349656  0.53173556    -0.10600
C2001       C  0.99990726  0.17402420  0.54076892    -0.00600
C2002       C  0.00853630  0.15631935  0.55912781    -0.05800
H2003       H  0.59869218  0.20360778  0.56649277     0.06700
H2004       H  0.97201388  0.16603269  0.53380176     0.10100
Br2005     Br  0.56752164  0.06637505  0.56706945    -0.05500
Br2006     Br  0.53816206  0.19143981  0.64612787    -0.02400
Br2007     Br  0.59849332  0.25500166  0.53004150     0.00400
Br2008     Br  0.96885595  0.12026526  0.57109118    -0.03900
C2009       C  0.89023604  0.49950198  0.62670266    -0.11300
C2010       C  0.84839590  0.01157518  0.62253106     0.04100
C2011       C  0.82980556  0.00345279  0.60446348    -0.11900
C2012       C  0.84718638  0.48362410  0.59191898     0.19000
C2013       C  0.88201400  0.46057037  0.59546586    -0.08900
C2014       C  0.90337644  0.46876131  0.61278386    -0.01900
H2015       H  0.80281065  0.02017994  0.60107463     0.05500
C2016       C  0.82798312  0.48265648  0.57240525     0.21000
H2017       H  0.93099966  0.45224016  0.61511063     0.10700
C2018       C  0.84206543  0.51127392  0.55794888    -0.15300
C2019       C  0.82224900  0.51574534  0.54002630     0.03700
C2020       C  0.78763369  0.49136047  0.53639255    -0.10600
C2021       C  0.77395754  0.95816056  0.54882451    -0.00600
C2022       C  0.79328101  0.95270824  0.56686801    -0.05800
H2023       H  0.86798830  0.53116776  0.56088452     0.06700
H2024       H  0.74590307  0.94197828  0.54633787     0.10100
Br2025     Br  0.90245545  0.41955431  0.57665140    -0.05500
Br2026     Br  0.82416512  0.05064835  0.64104162    -0.02400
Br2027     Br  0.84273755  0.55694329  0.52139514     0.00400
Br2028     Br  0.76928882  0.91628459  0.58646327    -0.03900
In2029     In  0.88153656  0.88144218  0.25093217     1.36900
C2030       C  0.82865300  0.91918507  0.22777153     0.78200
O2031       O  0.92315838  0.87961228  0.22552747    -0.60200
O2032       O  0.92231542  0.82488415  0.24441168    -0.51200
C2033       C  0.92769825  0.92863165  0.27450137     0.70900
O2034       O  0.91512722  0.94347138  0.25839096    -0.46000
C2035       C  0.83438265  0.83448880  0.27378890     0.75600
O2036       O  0.84207163  0.93801166  0.24300682    -0.57900
O2037       O  0.84950021  0.81866519  0.25832212    -0.48000
O2038       O  0.84149455  0.88124419  0.22493158    -0.54300
C2039       C  0.93628044  0.84220366  0.22908393     0.85800
O2040       O  0.91729396  0.89000251  0.27806186    -0.56200
O2041       O  0.84192095  0.87430451  0.27679694    -0.59500
N2042       N  0.48995531  0.01410150  0.70639438    -0.36000
N2043       N  0.92820146  0.99558038  0.67760979    -0.56500
N2044       N  0.97879030  0.54945599  0.64994275    -0.36000
N2045       N  0.53524473  0.57337932  0.67966636    -0.56500
C2046       C  0.96241524  0.99468687  0.71800071     0.27600
C2047       C  0.51630937  0.54287003  0.72026580     0.27600
C2048       C  0.94437050  0.54506449  0.64019205     0.27600
C2049       C  0.99874016  0.58243682  0.64136222     0.27600
C2050       C  0.91715278  0.96676286  0.69158755     0.36200
C2051       C  0.90777144  0.98466695  0.66108346     0.36200
C2052       C  0.56124272  0.57187391  0.69460506     0.36200
C2053       C  0.55610099  0.58318579  0.66329752     0.36200
C2054       C  0.46951706  0.00615244  0.73755644    -0.21300
C2055       C  0.50168968  0.03411476  0.73769942    -0.21300
C2056       C  0.94217620  0.57583191  0.62534602    -0.21300
C2057       C  0.97643177  0.59980497  0.62624185    -0.21300
C2058       C  0.88879307  0.93845045  0.68385801    -0.22300
C2059       C  0.88304417  0.94963649  0.66455736    -0.22300
C2060       C  0.59896630  0.58057872  0.68770513    -0.22300
C2061       C  0.59568179  0.58683877  0.66764157    -0.22300
C2062       C  0.93118038  0.96686365  0.71135911    -0.17700
C2063       C  0.55046191  0.56667559  0.71453863    -0.17700
C2064       C  0.53846268  0.59289729  0.64515572    -0.17700
C2065       C  0.90960990  0.00747454  0.64318833    -0.17700
H2066       H  0.45268322  0.99631054  0.75037995     0.15200
H2067       H  0.51439792  0.04932710  0.75072238     0.15200
H2068       H  0.91863529  0.58018946  0.61480066     0.15200
H2069       H  0.98445000  0.62627861  0.61655655     0.15200
H2070       H  0.87297834  0.91284116  0.69122802     0.13500
H2071       H  0.86251593  0.93425183  0.65437227     0.13500
H2072       H  0.62592978  0.58177434  0.69621176     0.13500
H2073       H  0.61943067  0.59305196  0.65738898     0.13500
H2074       H  0.49865636  0.51192098  0.69312152     0.26800
H2075       H  0.99064703  0.52696452  0.65974790     0.26800
C2076       C  0.72955591  0.52340169  0.51872391     0.02900
C2077       C  0.76639569  0.99565778  0.51650991     0.02900
C2078       C  0.77962135  0.98122863  0.49797434    -0.17600
C2079       C  0.75969756  0.99244043  0.48066500     0.02900
C2080       C  0.72624936  0.01926964  0.48182463     0.02900
C2081       C  0.70948368  0.53174658  0.50108554    -0.17600
H2082       H  0.68322872  0.55152251  0.50137678     0.04900
H2083       H  0.80560443  0.96109776  0.49701578     0.04900
N2084       N  0.00409031  0.50678806  0.29240596    -0.36000
N2085       N  0.55987251  0.53432022  0.32293807    -0.56500
N2086       N  0.52407173  0.98335059  0.35174872    -0.36000
N2087       N  0.97082457  0.94903119  0.32318986    -0.56500
C2088       C  0.53353383  0.52408548  0.28133208     0.27600
C2089       C  0.98511430  0.97818785  0.28192105     0.27600
C2090       C  0.55788591  0.99473167  0.36085444     0.27600
C2091       C  0.51028196  0.94730515  0.36078873     0.27600
C2092       C  0.56736539  0.56359604  0.30861743     0.36200
C2093       C  0.57285295  0.55255552  0.34003355     0.36200
C2094       C  0.94340059  0.94846340  0.30886649     0.36200
C2095       C  0.95242628  0.93644317  0.33995517     0.36200
C2096       C  0.03079988  0.50753987  0.26221123    -0.21300
C2097       C  0.99898276  0.47908289  0.26183736    -0.21300
C2098       C  0.56625762  0.96517452  0.37561138    -0.21300
C2099       C  0.53616650  0.93489706  0.37547719    -0.21300
C2100       C  0.58465711  0.60083398  0.31675584    -0.22300
C2101       C  0.58793788  0.59375905  0.33673539    -0.22300
C2102       C  0.90722835  0.93569219  0.31660311    -0.22300
C2103       C  0.91297907  0.92870436  0.33648013    -0.22300
C2104       C  0.56177858  0.55518766  0.28821034    -0.17700
C2105       C  0.95208024  0.95388914  0.28864058    -0.17700
C2106       C  0.97226879  0.92992368  0.35787376    -0.17700
C2107       C  0.57433834  0.53026526  0.35808860    -0.17700
H2108       H  0.04998381  0.51452117  0.24985224     0.15200
H2109       H  0.98903661  0.46025182  0.24916054     0.15200
H2110       H  0.59081279  0.96613736  0.38574961     0.15200
H2111       H  0.53287750  0.90779948  0.38546412     0.15200
H2112       H  0.59351959  0.63021642  0.30914665     0.13500
H2113       H  0.59952644  0.61623528  0.34768742     0.13500
H2114       H  0.87966297  0.93190578  0.30872758     0.13500
H2115       H  0.89081973  0.91991993  0.34722911     0.13500
H2116       H  0.49990117  0.01587493  0.30755930     0.26800
H2117       H  0.50831608  0.00311771  0.34218731     0.26800
C2118       C  0.99008262  0.75871605  0.51717995     0.02900
C2119       C  0.52338532  0.73152419  0.51717571     0.02900
C2120       C  0.54351034  0.72327960  0.49945866    -0.17600
C2121       C  0.53130953  0.74219465  0.48169145     0.02900
C2122       C  0.49847480  0.77020024  0.48179292     0.02900
C2123       C  0.97820165  0.77818683  0.49952351    -0.17600
H2124       H  0.95295565  0.79950681  0.49956202     0.04900
H2125       H  0.56829032  0.70130140  0.49943303     0.04900
N2126       N  0.77461662  0.70747900  0.64984231    -0.36000
N2127       N  0.71856448  0.68498119  0.68009478    -0.56500
N2128       N  0.75989165  0.74223959  0.70828746    -0.36000
N2129       N  0.81960594  0.75942092  0.67801336    -0.56500
C2130       C  0.75396400  0.67528333  0.64074762     0.27600
C2131       C  0.80860382  0.71249214  0.63977624     0.27600
C2132       C  0.73667344  0.71862062  0.72068980     0.27600
C2133       C  0.78845867  0.76185773  0.71926468     0.27600
C2134       C  0.69774859  0.67423427  0.66371774     0.36200
C2135       C  0.69227832  0.68806066  0.69495002     0.36200
C2136       C  0.83930615  0.76935509  0.66116431     0.36200
C2137       C  0.83164665  0.78870009  0.69188109     0.36200
C2138       C  0.77512691  0.65963447  0.62466817    -0.21300
C2139       C  0.80969112  0.68314037  0.62408686    -0.21300
C2140       C  0.75056542  0.72364316  0.73985017    -0.21300
C2141       C  0.78290552  0.75123630  0.73897543    -0.21300
C2142       C  0.65813303  0.67144405  0.66800632    -0.22300
C2143       C  0.65456970  0.67962823  0.68792794    -0.22300
C2144       C  0.86428846  0.80445567  0.66432741    -0.22300
C2145       C  0.85962961  0.81650837  0.68369911    -0.22300
C2146       C  0.71497164  0.66312856  0.64551043    -0.17700
C2147       C  0.83665359  0.74581086  0.64318733    -0.17700
C2148       C  0.81905371  0.78944837  0.71196664    -0.17700
C2149       C  0.70254377  0.69433603  0.71499471    -0.17700
H2150       H  0.76628526  0.63482547  0.61406300     0.15200
H2151       H  0.83256201  0.67979174  0.61305329     0.15200
H2152       H  0.73883621  0.70909719  0.75314021     0.15200
H2153       H  0.80084217  0.76144311  0.75142800     0.15200
H2154       H  0.63447326  0.66488919  0.65772934     0.13500
H2155       H  0.62738592  0.67977176  0.69626734     0.13500
H2156       H  0.88429626  0.81940280  0.65386896     0.13500
H2157       H  0.87603849  0.84226522  0.69081394     0.13500
H2158       H  0.76373409  0.72880561  0.66047722     0.26800
H2159       H  0.75464386  0.74781375  0.69339479     0.26800
N2160       N  0.75993283  0.75320453  0.29358547    -0.36000
N2161       N  0.79595084  0.81079971  0.32335804    -0.56500
N2162       N  0.74606414  0.77540743  0.35381847    -0.36000
N2163       N  0.70606190  0.72261510  0.32419276    -0.56500
C2164       C  0.77964836  0.78186329  0.28200698     0.27600
C2165       C  0.73143139  0.73408919  0.28241202     0.27600
C2166       C  0.76101725  0.81110089  0.36305113     0.27600
C2167       C  0.71307553  0.76377306  0.36364964     0.27600
C2168       C  0.82166280  0.81468389  0.30830672     0.36200
C2169       C  0.81499007  0.82540940  0.33968266     0.36200
C2170       C  0.69793639  0.69391779  0.30946890     0.36200
C2171       C  0.69137279  0.70491635  0.34092806     0.36200
C2172       C  0.76412801  0.78025334  0.26305538    -0.21300
C2173       C  0.73369187  0.75005822  0.26330257    -0.21300
C2174       C  0.73768034  0.82178053  0.37917597    -0.21300
C2175       C  0.70747475  0.79177023  0.37960017    -0.21300
C2176       C  0.85739789  0.83107986  0.31520177    -0.22300
C2177       C  0.85311401  0.83750792  0.33519537    -0.22300
C2178       C  0.67870823  0.65753707  0.31700924    -0.22300
C2179       C  0.67454124  0.66466770  0.33696523    -0.22300
C2180       C  0.81163926  0.80858471  0.28824202    -0.17700
C2181       C  0.70404602  0.70228575  0.28915794    -0.17700
C2182       C  0.68946988  0.72690181  0.35923469    -0.17700
C2183       C  0.79648939  0.83245973  0.35794527    -0.17700
H2184       H  0.77336236  0.79919750  0.25042043     0.15200
H2185       H  0.71501010  0.74151820  0.25088406     0.15200
H2186       H  0.74213719  0.84806159  0.38973734     0.15200
H2187       H  0.68433419  0.79056710  0.39057435     0.15200
H2188       H  0.88369892  0.83780480  0.30669569     0.13500
H2189       H  0.87539300  0.84901156  0.34539406     0.13500
H2190       H  0.66875291  0.62885763  0.30897357     0.13500
H2191       H  0.66121897  0.64276543  0.34748568     0.13500
H2192       H  0.76741550  0.74481878  0.30796579     0.26800
H2193       H  0.75974829  0.75733938  0.34274107     0.26800
C2194       C  0.98148673  0.99171522  0.01939922     0.02900
C2195       C  0.51964053  0.01033840  0.01829236     0.02900
C2196       C  0.54444777  0.49807956  0.99797889    -0.17600
C2197       C  0.02341045  0.49391273  0.98015118     0.02900
C2198       C  0.97157335  0.00565395  0.98428897     0.02900
C2199       C  0.95720152  0.99159352  0.00268974    -0.17600
H2200       H  0.92705424  0.98025959  0.00408678     0.04900
H2201       H  0.57307040  0.51398383  0.99803695     0.04900
N2202       N  0.76347216  0.50521749  0.85038142    -0.36000
N2203       N  0.81222606  0.98334059  0.82092753    -0.56500
N2204       N  0.75649015  0.01471915  0.79156265    -0.36000
N2205       N  0.70338325  0.53362613  0.82417262    -0.56500
C2206       C  0.79203898  0.48338957  0.85970665     0.27600
C2207       C  0.73225727  0.50620551  0.86262981     0.27600
C2208       C  0.77903153  0.98829017  0.78001441     0.27600
C2209       C  0.72413108  0.52504573  0.78153303     0.27600
C2210       C  0.83829365  0.99032027  0.83568365     0.36200
C2211       C  0.83315725  0.97903307  0.80418180     0.36200
C2212       C  0.68705994  0.54686176  0.84146592     0.36200
C2213       C  0.68533902  0.55598787  0.80971381     0.36200
C2214       C  0.77873121  0.46887518  0.87783564    -0.21300
C2215       C  0.74088619  0.48337123  0.87973695    -0.21300
C2216       C  0.76252096  0.98666101  0.76122375    -0.21300
C2217       C  0.72960379  0.01274863  0.76153598    -0.21300
C2218       C  0.87630633  0.99030290  0.82844585    -0.22300
C2219       C  0.87312804  0.98258604  0.80840402    -0.22300
C2220       C  0.65661307  0.57521003  0.83796905    -0.22300
C2221       C  0.65529595  0.58082447  0.81785182    -0.22300
C2222       C  0.82699636  0.99437242  0.85555808    -0.17700
C2223       C  0.70099877  0.53543914  0.86038574    -0.17700
C2224       C  0.69471374  0.55328111  0.78926113    -0.17700
C2225       C  0.81595173  0.96962549  0.78558249    -0.17700
H2226       H  0.79550603  0.45224436  0.88903703     0.15200
H2227       H  0.72299759  0.47916364  0.89276835     0.15200
H2228       H  0.77376091  0.97063206  0.74815474     0.15200
H2229       H  0.71074551  0.01882899  0.74901579     0.15200
H2230       H  0.90332549  0.99502497  0.83668412     0.13500
H2231       H  0.89752476  0.98153913  0.79815826     0.13500
H2232       H  0.63782610  0.59054505  0.84883522     0.13500
H2233       H  0.63435666  0.60075549  0.81016766     0.13500
H2234       H  0.76826623  0.52616026  0.83856133     0.26800
H2235       H  0.76328560  0.02587390  0.80565740     0.26800
N2236       N  0.95719115  0.70774653  0.84890275    -0.36000
N2237       N  0.52057589  0.68671081  0.82315469    -0.56500
N2238       N  0.49144502  0.75039798  0.79452392    -0.36000
N2239       N  0.92526999  0.76799849  0.82135000    -0.56500
C2240       C  0.97100286  0.67062366  0.85673180     0.27600
C2241       C  0.92055052  0.71336373  0.85605261     0.27600
C2242       C  0.51626353  0.72638813  0.78313523     0.27600
C2243       C  0.96591360  0.77094256  0.78237356     0.27600
C2244       C  0.53498281  0.67075651  0.84024443     0.36200
C2245       C  0.55118628  0.69018268  0.81060837     0.36200
C2246       C  0.90503241  0.77973570  0.83776141     0.36200
C2247       C  0.92148479  0.80081054  0.80838085     0.36200
C2248       C  0.94222820  0.65129516  0.86836285    -0.21300
C2249       C  0.91046862  0.67871859  0.86818528    -0.21300
C2250       C  0.50681944  0.73243046  0.76340921    -0.21300
C2251       C  0.47522726  0.76055583  0.76292384    -0.21300
C2252       C  0.57515652  0.66470571  0.83871242    -0.22300
C2253       C  0.58540061  0.67663161  0.81979580    -0.22300
C2254       C  0.88824405  0.82017960  0.83531040    -0.22300
C2255       C  0.89870118  0.83365253  0.81666718    -0.22300
C2256       C  0.51100370  0.65904319  0.85642345    -0.17700
C2257       C  0.89932815  0.75227687  0.85412068    -0.17700
C2258       C  0.93504063  0.79922663  0.78859074    -0.17700
C2259       C  0.54732136  0.69987490  0.79033919    -0.17700
H2260       H  0.94489760  0.62211995  0.87713052     0.15200
H2261       H  0.88384833  0.67439921  0.87672981     0.15200
H2262       H  0.52081624  0.71782044  0.75064773     0.15200
H2263       H  0.46041926  0.77133653  0.74971079     0.15200
H2264       H  0.59481084  0.65252875  0.84989854     0.13500
H2265       H  0.61460799  0.67547733  0.81345315     0.13500
H2266       H  0.86989978  0.83770713  0.84569365     0.13500
H2267       H  0.89027639  0.86410533  0.80998751     0.13500
H2268       H  0.97428163  0.73179979  0.84215813     0.26800
H2269       H  0.99343448  0.75483651  0.80976242     0.26800
In2270     In  0.63274022  0.62988267  0.25101087     1.36900
C2271       C  0.58745636  0.57940498  0.27408175     0.78200
O2272       O  0.63572043  0.58633115  0.22398098    -0.60200
O2273       O  0.68421372  0.58541490  0.24326884    -0.51200
C2274       C  0.59596318  0.69204584  0.23016761     0.70900
O2275       O  0.57909413  0.67147967  0.24382499    -0.46000
C2276       C  0.67865892  0.67819648  0.27479259     0.75600
O2277       O  0.57659673  0.59132684  0.25717613    -0.57900
O2278       O  0.69113195  0.66203896  0.25881245    -0.48000
O2279       O  0.62199381  0.59125302  0.27847371    -0.54300
C2280       C  0.66958006  0.57164354  0.22728650     0.85800
O2281       O  0.63171509  0.68245049  0.22805324    -0.56200
O2282       O  0.64263177  0.67106452  0.27803029    -0.59500
N2283       N  0.74496715  0.49080407  0.20791856    -0.36000
N2284       N  0.68357915  0.51324096  0.17936650    -0.56500
N2285       N  0.72356808  0.95364466  0.15097705    -0.36000
N2286       N  0.78022765  0.92793499  0.17961203    -0.56500
C2287       C  0.71835866  0.51119671  0.21964845     0.27600
C2288       C  0.76872534  0.96436516  0.21999468     0.27600
C2289       C  0.68935521  0.96201013  0.14177570     0.27600
C2290       C  0.73881844  0.91791405  0.14224548     0.27600
C2291       C  0.68111198  0.54602304  0.19272192     0.36200
C2292       C  0.66814439  0.52848288  0.16234277     0.36200
C2293       C  0.80878344  0.93128070  0.19333211     0.36200
C2294       C  0.79775781  0.91368819  0.16287131     0.36200
C2295       C  0.72414668  0.49847539  0.23905824    -0.21300
C2296       C  0.75497712  0.46931649  0.23895894    -0.21300
C2297       C  0.68259769  0.93091627  0.12707713    -0.21300
C2298       C  0.71382138  0.90291760  0.12747974    -0.21300
C2299       C  0.66483542  0.58226985  0.18398932    -0.22300
C2300       C  0.65575717  0.57091410  0.16481025    -0.22300
C2301       C  0.84472068  0.91951273  0.18520139    -0.22300
C2302       C  0.83758968  0.90871837  0.16574753    -0.22300
C2303       C  0.69048918  0.54221363  0.21301638    -0.17700
C2304       C  0.80160510  0.93979575  0.21351121    -0.17700
C2305       C  0.77714889  0.90279363  0.14553118    -0.17700
C2306       C  0.66432968  0.50356043  0.14488206    -0.17700
H2307       H  0.70775329  0.50866305  0.25196936     0.15200
H2308       H  0.76673915  0.45310605  0.25177579     0.15200
H2309       H  0.65864322  0.92923684  0.11658454     0.15200
H2310       H  0.71840656  0.87569912  0.11751851     0.15200
H2311       H  0.66171930  0.61404060  0.19063189     0.13500
H2312       H  0.64279860  0.59170792  0.15379030     0.13500
H2313       H  0.87302308  0.91900057  0.19252456     0.13500
H2314       H  0.85894642  0.89929970  0.15477276     0.13500
H2315       H  0.75237173  0.99685504  0.19346402     0.26800
H2316       H  0.73860109  0.97513853  0.16034899     0.26800
C2317       C  0.74994135  0.69004314  0.98715186     0.02900
C2318       C  0.77976249  0.72249011  0.98586198     0.02900
C2319       C  0.79253020  0.74415459  0.00314528    -0.17600
C2320       C  0.77495570  0.73524189  0.02146600     0.02900
C2321       C  0.74411400  0.70398997  0.02249381     0.02900
C2322       C  0.73245776  0.68115610  0.00545393    -0.17600
H2323       H  0.70863897  0.65744249  0.00630803     0.04900
H2324       H  0.81492901  0.76947221  0.00218948     0.04900
In2325     In  0.62511887  0.63147293  0.75360863     1.36900
C2326       C  0.57451150  0.67652189  0.77660512     0.78200
O2327       O  0.58702493  0.62841746  0.72675443    -0.60200
O2328       O  0.58748394  0.57273754  0.74507618    -0.51200
C2329       C  0.67690913  0.67203133  0.72981513     0.70900
O2330       O  0.66745212  0.68774785  0.74643330    -0.46000
C2331       C  0.67181817  0.58122115  0.77562047     0.75600
O2332       O  0.59067630  0.69317599  0.76166699    -0.57900
O2333       O  0.65279949  0.56665464  0.76100358    -0.48000
O2334       O  0.58398368  0.63751287  0.77942383    -0.54300
C2335       C  0.57522989  0.58980931  0.72939097     0.85800
O2336       O  0.66141258  0.63538719  0.72615571    -0.56200
O2337       O  0.66832466  0.62173426  0.77838498    -0.59500
In2338     In  0.87528409  0.87968852  0.74952719     1.36900
C2339       C  0.91405420  0.82696622  0.77403257     0.78200
O2340       O  0.87246542  0.92760700  0.77475854    -0.60200
O2341       O  0.82062628  0.91710982  0.75839534    -0.51200
C2342       C  0.91148085  0.93696588  0.72567300     0.70900
O2343       O  0.87497876  0.92951351  0.72549600    -0.46000
C2344       C  0.83915998  0.82035849  0.72600457     0.75600
O2345       O  0.93086031  0.84628506  0.75993743    -0.57900
O2346       O  0.82125106  0.84131612  0.73927644    -0.48000
O2347       O  0.87762304  0.83426881  0.77526167    -0.54300
C2348       C  0.83698834  0.93795976  0.77231648     0.85800
O2349       O  0.92980330  0.91554579  0.73846864    -0.56200
O2350       O  0.87543434  0.82900375  0.72525883    -0.59500
N2351       N  0.01968048  0.77068260  0.21084741    -0.36000
N2352       N  0.98319208  0.82600596  0.18067201    -0.56500
N2353       N  0.54038969  0.79855020  0.15236189    -0.36000
N2354       N  0.58128770  0.74881492  0.18233625    -0.56500
C2355       C  0.99642608  0.79620092  0.22225244     0.27600
C2356       C  0.54639048  0.75148625  0.22273468     0.27600
C2357       C  0.52174920  0.82943374  0.14193664     0.27600
C2358       C  0.57461820  0.79033341  0.14306239     0.27600
C2359       C  0.95560027  0.82523448  0.19496741     0.36200
C2360       C  0.96415998  0.83570545  0.16374401     0.36200
C2361       C  0.58538991  0.71736531  0.19601872     0.36200
C2362       C  0.59728813  0.73267156  0.16550234     0.36200
C2363       C  0.00835699  0.79289328  0.24181190    -0.21300
C2364       C  0.03972925  0.76436487  0.24212262    -0.21300
C2365       C  0.54451095  0.84126304  0.12580329    -0.21300
C2366       C  0.57802955  0.81656141  0.12651794    -0.21300
C2367       C  0.91892622  0.83434438  0.18705218    -0.22300
C2368       C  0.92447313  0.84057624  0.16717593    -0.22300
C2369       C  0.60348423  0.68141768  0.18776443    -0.22300
C2370       C  0.61194324  0.69140056  0.16854092    -0.22300
C2371       C  0.96366702  0.82013875  0.21527216    -0.17700
C2372       C  0.57526057  0.72149894  0.21618891    -0.17700
C2373       C  0.59910172  0.75496976  0.14744080    -0.17700
C2374       C  0.98298244  0.84323077  0.14558335    -0.17700
H2375       H  0.99569887  0.80898637  0.25456790     0.15200
H2376       H  0.05587293  0.75450511  0.25509734     0.15200
H2377       H  0.53693969  0.86372907  0.11422372     0.15200
H2378       H  0.60124941  0.81638649  0.11556577     0.15200
H2379       H  0.89106233  0.83569265  0.19477287     0.13500
H2380       H  0.90210232  0.84683786  0.15630734     0.13500
H2381       H  0.60833020  0.65062912  0.19484647     0.13500
H2382       H  0.62589336  0.67019066  0.15784765     0.13500
H2383       H  0.51527170  0.76347544  0.19596409     0.26800
H2384       H  0.52772899  0.77920901  0.16322944     0.26800
C2385       C  0.62356646  0.73736031  0.13126273    -0.11300
C2386       C  0.66108356  0.75478499  0.12721575     0.04100
C2387       C  0.68012505  0.74322231  0.10967829    -0.11900
C2388       C  0.66279909  0.71317148  0.09651043     0.19000
C2389       C  0.62660035  0.69334644  0.10130961    -0.08900
C2390       C  0.60698175  0.70593319  0.11851729    -0.01900
H2391       H  0.70764572  0.75905351  0.10588100     0.05500
C2392       C  0.68106188  0.70630456  0.07704921     0.21000
H2393       H  0.57816552  0.69224174  0.12168373     0.10700
C2394       C  0.71488041  0.68078639  0.07541535    -0.15300
C2395       C  0.73466405  0.67720823  0.05735012     0.03700
C2396       C  0.72046452  0.69935528  0.04070493    -0.10600
C2397       C  0.68555999  0.72313166  0.04218800    -0.00600
C2398       C  0.66622901  0.72739093  0.06028025    -0.05800
H2399       H  0.72635530  0.66450613  0.08830845     0.06700
H2400       H  0.67483909  0.74084309  0.02952051     0.10100
Br2401     Br  0.60219155  0.65072615  0.08430012    -0.05500
Br2402     Br  0.68628137  0.79564010  0.14481734    -0.02400
Br2403     Br  0.78110134  0.64249137  0.05615274     0.00400
Br2404     Br  0.62183713  0.76551111  0.06185159    -0.03900
C2405       C  0.78600819  0.76152203  0.03918244    -0.11300
C2406       C  0.82065902  0.75356450  0.04995780     0.04100
C2407       C  0.82653011  0.77382078  0.06842576    -0.11900
C2408       C  0.79873331  0.80302035  0.07603715     0.19000
C2409       C  0.76479606  0.81199746  0.06487338    -0.08900
C2410       C  0.75897371  0.79174586  0.04656460    -0.01900
H2411       H  0.85269904  0.76671037  0.07686572     0.05500
C2412       C  0.80539917  0.82572098  0.09515972     0.21000
H2413       H  0.73246459  0.79851712  0.03830707     0.10700
C2414       C  0.81263128  0.87079938  0.09491436    -0.15300
C2415       C  0.80727603  0.89610298  0.11193159     0.03700
C2416       C  0.79560920  0.87621488  0.12968183    -0.10600
C2417       C  0.79287137  0.83056459  0.13050392    -0.00600
C2418       C  0.79759032  0.80518600  0.11333249    -0.05800
H2419       H  0.81886316  0.88683310  0.08103302     0.06700
H2420       H  0.78370619  0.81500851  0.14408856     0.10100
Br2421     Br  0.72432145  0.84995387  0.07443186    -0.05500
Br2422     Br  0.86040633  0.71519411  0.04007395    -0.02400
Br2423     Br  0.81032167  0.95826812  0.10965108     0.00400
Br2424     Br  0.78903480  0.74341443  0.11497603    -0.03900
C2425       C  0.87340903  0.76523515  0.87079800    -0.11300
C2426       C  0.83646991  0.74516106  0.87357129     0.04100
C2427       C  0.81846279  0.74657912  0.89219227    -0.11900
C2428       C  0.83640894  0.76905038  0.90805417     0.19000
C2429       C  0.87103396  0.79351634  0.90451355    -0.08900
C2430       C  0.88946079  0.79110357  0.88603481    -0.01900
H2431       H  0.79172586  0.72781777  0.89459981     0.05500
C2432       C  0.82218757  0.76109917  0.92849478     0.21000
H2433       H  0.91765217  0.80723633  0.88393753     0.10700
C2434       C  0.84746012  0.74057977  0.94190452    -0.15300
C2435       C  0.83457473  0.72898307  0.96080781     0.03700
C2436       C  0.79537690  0.73667004  0.96641781    -0.10600
C2437       C  0.77036065  0.75818160  0.95324347    -0.00600
C2438       C  0.78346312  0.77056092  0.93445651    -0.05800
H2439       H  0.87725641  0.73283837  0.93750435     0.06700
H2440       H  0.74050712  0.76550716  0.95763426     0.10100
Br2441     Br  0.89510660  0.82896624  0.92475425    -0.05500
Br2442     Br  0.81211800  0.71183111  0.85278608    -0.02400
Br2443     Br  0.87123747  0.70162164  0.97818410     0.00400
Br2444     Br  0.74793484  0.80164549  0.91781047    -0.03900
C2445       C  0.73564342  0.66613824  0.96941821    -0.11300
C2446       C  0.69959959  0.67670721  0.96047909     0.04100
C2447       C  0.68850367  0.65639868  0.94273815    -0.11900
C2448       C  0.71145817  0.62338527  0.93443892     0.19000
C2449       C  0.74649160  0.61106539  0.94392265    -0.08900
C2450       C  0.75872296  0.63302129  0.96112252    -0.01900
H2451       H  0.66214427  0.66672549  0.93523985     0.05500
C2452       C  0.70025626  0.60453674  0.91508950     0.21000
H2453       H  0.78625362  0.62429983  0.96804671     0.10700
C2454       C  0.71326985  0.62550287  0.89797408    -0.15300
C2455       C  0.70931284  0.60533743  0.87948938     0.03700
C2456       C  0.69202671  0.56333739  0.87793301    -0.10600
C2457       C  0.67535567  0.54461273  0.89489974    -0.00600
C2458       C  0.67964734  0.56467845  0.91343837    -0.05800
H2459       H  0.72869004  0.65653086  0.89914177     0.06700
H2460       H  0.66226697  0.51236474  0.89403568     0.10100
Br2461     Br  0.77869791  0.56508761  0.93363827    -0.05500
Br2462     Br  0.66501910  0.71921065  0.97175809    -0.02400
Br2463     Br  0.73230029  0.63462489  0.85729585     0.00400
Br2464     Br  0.66034263  0.53458257  0.93623507    -0.03900
C2465       C  0.52708462  0.63518290  0.87377770    -0.11300
C2466       C  0.02099651  0.65096302  0.89314579     0.04100
C2467       C  0.02927204  0.62474788  0.90926167    -0.11900
C2468       C  0.54731877  0.58390592  0.90713787     0.19000
C2469       C  0.55588924  0.56923929  0.88760239    -0.08900
C2470       C  0.54509901  0.59453473  0.87126024    -0.01900
H2471       H  0.02003070  0.63628255  0.92365360     0.05500
C2472       C  0.55282229  0.55722211  0.92552651     0.21000
H2473       H  0.55010431  0.58196399  0.85646865     0.10700
C2474       C  0.04256388  0.51256611  0.92567633    -0.15300
C2475       C  0.03953163  0.48956329  0.94344065     0.03700
C2476       C  0.04090646  0.51227176  0.96162980    -0.10600
C2477       C  0.55469603  0.55549334  0.96166166    -0.00600
C2478       C  0.56245817  0.57720712  0.94395725    -0.05800
H2479       H  0.03469143  0.49554339  0.91221077     0.06700
H2480       H  0.55807241  0.57316503  0.97549402     0.10100
Br2481     Br  0.58195075  0.51561439  0.88154380    -0.05500
Br2482     Br  0.00104866  0.70821211  0.89881193    -0.02400
Br2483     Br  0.01604390  0.94688630  0.94711704     0.00400
Br2484     Br  0.58606636  0.63415423  0.94634128    -0.03900
C2485       C  0.94448085  0.00723454  0.96695581    -0.11300
C2486       C  0.92362122  0.97015974  0.95980357     0.04100
C2487       C  0.90691370  0.97086937  0.94089802    -0.11900
C2488       C  0.91133590  0.00741561  0.92869111     0.19000
C2489       C  0.93707752  0.52332502  0.93522830    -0.08900
C2490       C  0.95403492  0.52021483  0.95389560    -0.01900
H2491       H  0.89139693  0.94216638  0.93545634     0.05500
C2492       C  0.89490627  0.00611011  0.90836831     0.21000
H2493       H  0.96727040  0.54911605  0.96050870     0.10700
C2494       C  0.87467798  0.52082475  0.90242145    -0.15300
C2495       C  0.85644032  0.52387287  0.88412520     0.03700
C2496       C  0.85569951  0.00195091  0.87172452    -0.10600
C2497       C  0.88245533  0.96947584  0.87682494    -0.00600
C2498       C  0.90296050  0.97196932  0.89477849    -0.05800
H2499       H  0.86723332  0.54433102  0.91380807     0.06700
H2500       H  0.88642605  0.94151815  0.86716306     0.10100
Br2501     Br  0.94187045  0.57868851  0.92234465    -0.05500
Br2502     Br  0.91990709  0.91620434  0.97393879    -0.02400
Br2503     Br  0.82391170  0.57382463  0.87972823     0.00400
Br2504     Br  0.94168756  0.92830599  0.89972441    -0.03900
C2505       C  0.63866201  0.51782649  0.12855168    -0.11300
C2506       C  0.65495441  0.53936478  0.11211475     0.04100
C2507       C  0.63433341  0.53997691  0.09425254    -0.11900
C2508       C  0.59784217  0.51856254  0.09236987     0.19000
C2509       C  0.58791764  0.99538922  0.10648969    -0.08900
C2510       C  0.60714885  0.99155097  0.12458042    -0.01900
H2511       H  0.64786149  0.55494633  0.08145222     0.05500
C2512       C  0.58073444  0.51242946  0.07242816     0.21000
H2513       H  0.59696446  0.96733284  0.13503164     0.10700
C2514       C  0.60089826  0.00459415  0.05681057    -0.15300
C2515       C  0.58126579  0.99976192  0.03874658     0.03700
C2516       C  0.54826975  0.49482794  0.03481713    -0.10600
C2517       C  0.52836973  0.52136281  0.04852043    -0.00600
C2518       C  0.54434935  0.53043755  0.06715273    -0.05800
H2519       H  0.62920804  0.98930878  0.05879886     0.06700
H2520       H  0.50007106  0.53489333  0.04470954     0.10100
Br2521     Br  0.54677061  0.95473749  0.10032673    -0.05500
Br2522     Br  0.70711637  0.56384465  0.11275120    -0.02400
Br2523     Br  0.60632203  0.96586873  0.01844809     0.00400
Br2524     Br  0.51582292  0.56818914  0.08466185    -0.03900
C2525       C  0.96822202  0.96909332  0.03754365    -0.11300
C2526       C  0.48441570  0.92873088  0.04259423     0.04100
C2527       C  0.47613528  0.91040709  0.06093527    -0.11900
C2528       C  0.95034298  0.93056764  0.07437227     0.19000
C2529       C  0.93323561  0.97061891  0.06904189    -0.08900
C2530       C  0.94200541  0.98929955  0.05066044    -0.01900
H2531       H  0.49057080  0.88036965  0.06485244     0.05500
C2532       C  0.94512536  0.91028168  0.09418988     0.21000
H2533       H  0.92942643  0.02043316  0.04686840     0.10700
C2534       C  0.95546996  0.93420712  0.11126894    -0.15300
C2535       C  0.96431961  0.91297482  0.12893771     0.03700
C2536       C  0.96237563  0.86720625  0.12973982    -0.10600
C2537       C  0.94704803  0.84378482  0.11358271    -0.00600
C2538       C  0.93806567  0.86499391  0.09594914    -0.05800
H2539       H  0.46100439  0.96895124  0.11038263     0.06700
H2540       H  0.94464069  0.80858157  0.11424300     0.10100
Br2541     Br  0.89824105  0.00163581  0.08616477    -0.05500
Br2542     Br  0.51764204  0.89698002  0.02476470    -0.02400
Br2543     Br  0.48437008  0.94707033  0.15067651     0.00400
Br2544     Br  0.91887112  0.83022943  0.07423587    -0.03900
C2545       C  0.86291446  0.75755481  0.62643199    -0.11300
C2546       C  0.90199755  0.74294571  0.62529397     0.04100
C2547       C  0.92357345  0.74885392  0.60783903    -0.11900
C2548       C  0.90667936  0.76943016  0.59144925     0.19000
C2549       C  0.86816627  0.78571101  0.59298885    -0.08900
C2550       C  0.84667803  0.77968966  0.61037041    -0.01900
H2551       H  0.95300709  0.73578491  0.60676205     0.05500
C2552       C  0.92772387  0.76947692  0.57226392     0.21000
H2553       H  0.81660507  0.79098292  0.61114178     0.10700
C2554       C  0.91168384  0.74522097  0.55648524    -0.15300
C2555       C  0.93060127  0.74340256  0.53817936     0.03700
C2556       C  0.96673650  0.76541651  0.53547660    -0.10600
C2557       C  0.98281307  0.78992172  0.55120877    -0.00600
C2558       C  0.96352017  0.79221439  0.56950634    -0.05800
H2559       H  0.88445073  0.72711823  0.55852059     0.06700
H2560       H  0.01078887  0.80662998  0.54933008     0.10100
Br2561     Br  0.84323618  0.81537460  0.57155929    -0.05500
Br2562     Br  0.92591477  0.71230582  0.64668966    -0.02400
Br2563     Br  0.90718876  0.70795717  0.51777740     0.00400
Br2564     Br  0.98673751  0.82713950  0.59015122    -0.03900
C2565       C  0.55221321  0.73124071  0.46302425    -0.11300
C2566       C  0.59183862  0.74340780  0.46002452     0.04100
C2567       C  0.60990397  0.73477121  0.44187685    -0.11900
C2568       C  0.58914434  0.71425922  0.42641967     0.19000
C2569       C  0.54980817  0.70107597  0.42950128    -0.08900
C2570       C  0.53173255  0.70949359  0.44773619    -0.01900
H2571       H  0.64009995  0.74527304  0.43959423     0.05500
C2572       C  0.60915632  0.70941536  0.40709581     0.21000
H2573       H  0.50142556  0.69942476  0.44994638     0.10700
C2574       C  0.64251781  0.68289184  0.40576696    -0.15300
C2575       C  0.66785725  0.68567650  0.38948610     0.03700
C2576       C  0.65909487  0.71407865  0.37390727    -0.10600
C2577       C  0.62414780  0.73792144  0.37451205    -0.00600
C2578       C  0.59991425  0.73685360  0.39118723    -0.05800
H2579       H  0.65037527  0.66242211  0.41809112     0.06700
H2580       H  0.61793174  0.76091514  0.36287455     0.10100
Br2581     Br  0.51981730  0.67141969  0.40937497    -0.05500
Br2582     Br  0.62197980  0.77430789  0.47968994    -0.02400
Br2583     Br  0.71625453  0.65420179  0.39011674     0.00400
Br2584     Br  0.55908155  0.77927840  0.39293727    -0.03900
C2585       C  0.98594500  0.79273073  0.46362618    -0.11300
C2586       C  0.95075265  0.78138780  0.45380064     0.04100
C2587       C  0.94064356  0.80237259  0.43625344    -0.11900
C2588       C  0.96503149  0.83502432  0.42831890     0.19000
C2589       C  0.50059404  0.84584782  0.43811345    -0.08900
C2590       C  0.51063651  0.82483247  0.45560915    -0.01900
H2591       H  0.91393156  0.79267655  0.42864240     0.05500
C2592       C  0.95386792  0.85733744  0.40977326     0.21000
H2593       H  0.53813618  0.83316054  0.46289316     0.10700
C2594       C  0.94823259  0.90258329  0.41022087    -0.15300
C2595       C  0.94813402  0.92649959  0.39273542     0.03700
C2596       C  0.95431781  0.90522945  0.37447636    -0.10600
C2597       C  0.95424669  0.85948072  0.37381945    -0.00600
C2598       C  0.45344599  0.83536662  0.39135841    -0.05800
H2599       H  0.94690644  0.91970883  0.42427331     0.06700
H2600       H  0.45836952  0.84269061  0.35983300     0.10100
Br2601     Br  0.53788510  0.88713253  0.42774545    -0.05500
Br2602     Br  0.91685116  0.73570994  0.46315781    -0.02400
Br2603     Br  0.94530230  0.98884331  0.39455149     0.00400
Br2604     Br  0.45551458  0.77301589  0.38940126    -0.03900
C2605       C  0.70190752  0.52503064  0.46464989    -0.11300
C2606       C  0.70959420  0.56384357  0.45432225     0.04100
C2607       C  0.69034747  0.57169213  0.43643136    -0.11900
C2608       C  0.66363526  0.54100379  0.42863318     0.19000
C2609       C  0.66592239  0.00692212  0.43541451    -0.08900
C2610       C  0.68346933  0.99851420  0.45357029    -0.01900
H2611       H  0.69634832  0.60160844  0.42856708     0.05500
C2612       C  0.64346439  0.54953636  0.40978407     0.21000
H2613       H  0.68160222  0.96596258  0.45953887     0.10700
C2614       C  0.66565977  0.05002255  0.39101405    -0.15300
C2615       C  0.64416141  0.04641570  0.37343383     0.03700
C2616       C  0.60020155  0.54574643  0.37441908    -0.10600
C2617       C  0.58259951  0.56083608  0.39193479    -0.00600
C2618       C  0.60401626  0.56290357  0.40956467    -0.05800
H2619       H  0.69679181  0.04276013  0.39091357     0.06700
H2620       H  0.55143448  0.56792247  0.39217512     0.10100
Br2621     Br  0.64221077  0.95892656  0.42129766    -0.05500
Br2622     Br  0.74693066  0.60623895  0.46393003    -0.02400
Br2623     Br  0.67118608  0.02792775  0.34997339     0.00400
Br2624     Br  0.57761317  0.58029074  0.43338287    -0.03900
C2625       C  0.77315185  0.97407394  0.46155564    -0.11300
C2626       C  0.76237305  0.93138174  0.45593761     0.04100
C2627       C  0.77371835  0.91509495  0.43752579    -0.11900
C2628       C  0.79763276  0.93981007  0.42480016     0.19000
C2629       C  0.80874794  0.98250246  0.43046635    -0.08900
C2630       C  0.79605219  0.99953933  0.44868144    -0.01900
H2631       H  0.76449283  0.88242808  0.43324920     0.05500
C2632       C  0.81023698  0.91928617  0.40592398     0.21000
H2633       H  0.80451338  0.03243199  0.45295905     0.10700
C2634       C  0.79602405  0.93518089  0.38791278    -0.15300
C2635       C  0.79716448  0.90913750  0.37080639     0.03700
C2636       C  0.81172400  0.86634795  0.37181759    -0.10600
C2637       C  0.83055112  0.85285369  0.38909755    -0.00600
C2638       C  0.83006204  0.87915869  0.40606452    -0.05800
H2639       H  0.78101397  0.96614279  0.38751130     0.06700
H2640       H  0.84214173  0.82015751  0.38997279     0.10100
Br2641     Br  0.84273645  0.01761541  0.41439202    -0.05500
Br2642     Br  0.73227051  0.89399425  0.47297047    -0.02400
Br2643     Br  0.77331524  0.93045968  0.34711992     0.00400
Br2644     Br  0.85271959  0.85705719  0.42983569    -0.03900
C2645       C  0.71429525  0.54148104  0.53750328    -0.11300
C2646       C  0.72469731  0.58371312  0.54387890     0.04100
C2647       C  0.71339620  0.59805677  0.56263783    -0.11900
C2648       C  0.69081783  0.57136017  0.57522228     0.19000
C2649       C  0.67824661  0.52995377  0.56824091    -0.08900
C2650       C  0.69035096  0.51531967  0.54954935    -0.01900
H2651       H  0.72303075  0.63011489  0.56759590     0.05500
C2652       C  0.68282813  0.58810605  0.59552075     0.21000
H2653       H  0.68146872  0.48311616  0.54446001     0.10700
C2654       C  0.66807641  0.63065618  0.59748116    -0.13300
C2655       C  0.67426730  0.65489994  0.61481738     0.03700
C2656       C  0.69318643  0.63568586  0.63096456    -0.10600
C2657       C  0.70210606  0.59123109  0.63015686    -0.00600
C2658       C  0.69865251  0.56781835  0.61241088    -0.05800
H2659       H  0.65597843  0.64683684  0.58470210     0.06700
H2660       H  0.71743494  0.57661430  0.64244375     0.10100
Br2661     Br  0.64404135  0.49231100  0.58309983    -0.05500
Br2662     Br  0.75447753  0.62288710  0.52759502    -0.02400
Br2663     Br  0.66310818  0.71603935  0.61459096     0.00400
Br2664     Br  0.72449247  0.51258776  0.61145069    -0.03900
C2665       C  0.56052654  0.61436534  0.62902488    -0.11300
C2666       C  0.55977836  0.66008901  0.62736360     0.04100
C2667       C  0.56055193  0.67903309  0.60861779    -0.11900
C2668       C  0.56207969  0.65271340  0.59157821     0.19000
C2669       C  0.56837190  0.60769502  0.59345000    -0.08900
C2670       C  0.56812087  0.58888601  0.61215874    -0.01900
H2671       H  0.55655136  0.71388091  0.60729069     0.05500
C2672       C  0.55289372  0.67178730  0.57218975     0.21000
H2673       H  0.56871119  0.55368372  0.61329916     0.10700
C2674       C  0.57854039  0.70281068  0.56398201    -0.15300
C2675       C  0.56993086  0.72195402  0.54580043     0.03700
C2676       C  0.53566226  0.70933490  0.53544496    -0.10600
C2677       C  0.01034971  0.67797165  0.54357176    -0.00600
C2678       C  0.01798878  0.66018983  0.56202779    -0.05800
H2679       H  0.60494688  0.71261463  0.57188889     0.06700
H2680       H  0.98360963  0.66863229  0.53585713     0.10100
Br2681     Br  0.57261597  0.57021453  0.57072824    -0.05500
Br2682     Br  0.55072183  0.69693441  0.64990957    -0.02400
Br2683     Br  0.60430970  0.76704985  0.53633117     0.00400
Br2684     Br  0.97809243  0.62296087  0.57313552    -0.03900
C2685       C  0.88521650  0.99301708  0.62625615    -0.11300
C2686       C  0.85437252  0.52079629  0.62364604     0.04100
C2687       C  0.83337111  0.51312375  0.60620013    -0.11900
C2688       C  0.84704151  0.97622518  0.59020677     0.19000
C2689       C  0.88301175  0.95598060  0.59434063    -0.08900
C2690       C  0.90191008  0.96459157  0.61230325    -0.01900
H2691       H  0.80720394  0.53181256  0.60331225     0.05500
C2692       C  0.82931733  0.97433513  0.57036785     0.21000
H2693       H  0.93045649  0.95048375  0.61510078     0.10700
C2694       C  0.84639261  0.99955641  0.55541581    -0.15300
C2695       C  0.82698355  0.00538808  0.53746801     0.03700
C2696       C  0.78986079  0.98562454  0.53429900    -0.10600
C2697       C  0.77432676  0.46146329  0.55057528    -0.00600
C2698       C  0.79419245  0.45709471  0.56857239    -0.05800
H2699       H  0.87403175  0.01652752  0.55810783     0.06700
H2700       H  0.74800845  0.44216814  0.54778686     0.10100
Br2701     Br  0.90800951  0.91800639  0.57562395    -0.05500
Br2702     Br  0.83450892  0.56248567  0.64231232    -0.02400
Br2703     Br  0.85108693  0.04340895  0.51848909     0.00400
Br2704     Br  0.77397274  0.41664863  0.58758423    -0.03900
loop_ 
_geom_bond_atom_site_label_1 
_geom_bond_atom_site_label_2 
_geom_bond_distance 
_geom_bond_site_symmetry_2 
_ccdc_geom_bond_type 
In1           O3   2.232       .  S
In1           O4   2.277       .  S
In1          O12   2.213       .  S
In1           O6   2.268       .  S
In1           O8   2.274       .  S
In1           O9   2.263       .  S
In1          O10   2.232       .  S
In1          O13   2.228       .  S
C2            O8   1.260       .  A
C2           O10   1.260       .  A
C2          C276   1.486       .  S
O3           C11   1.261       .  A
O4           C11   1.260       .  A
C5           O12   1.259       .  A
C5            O6   1.261       .  A
C5           C77   1.477       .  S
C7            O9   1.261       .  A
C7           O13   1.258       .  A
C7          C152   1.479       .  S
C11         C343   1.485       .  S
N14         C695   1.357   1_655  A
N14        C1370   1.355       .  A
N14         H722   1.042       .  S
N15          C22   1.350       .  A
N15          C23   1.354       .  A
N16          C21   1.348       .  A
N16          C20   1.347       .  A
N16          H47   1.040       .  S
N17          C24   1.346       .  A
N17          C25   1.353       .  A
C18        N1366   1.355       .  A
C18          C34   1.423       .  A
C18        C1378   1.390       .  A
C19         N690   1.360   1_455  A
C19          C35   1.427       .  A
C19         C703   1.388       .  A
C20          C28   1.386       .  A
C20         C713   1.401       .  A
C21          C29   1.386       .  A
C21        C1388   1.406       .  A
C22          C34   1.420       .  A
C22          C30   1.390       .  A
C23          C37   1.407       .  A
C23          C31   1.380       .  A
C24          C32   1.389       .  A
C24          C35   1.414       .  A
C25          C33   1.379       .  A
C25          C36   1.407       .  A
C26          C27   1.380   1_655  A
C26        C1370   1.390       .  A
C26          H38   1.080       .  S
C27         C695   1.385       .  A
C27          H39   1.082       .  S
C28          C29   1.370       .  A
C28          H40   1.082       .  S
C29          H41   1.080       .  S
C30          C31   1.368       .  A
C30          H42   1.078       .  S
C31          H43   1.083       .  S
C32          C33   1.378       .  A
C32          H44   1.082       .  S
C33          H45   1.081       .  S
C34         C314   1.487       .  S
C35         C307   1.491       .  S
C36         C637   1.486       .  S
C36        C1373   1.406   1_455  A
C37         C657   1.480       .  S
C37         C696   1.405       .  A
H46         N690   1.038       .  S
C48         C617   1.485       .  S
C48          C53   1.405       .  A
C48         C725   1.415   1_545  A
C49         C668   1.479       .  S
C49          C50   1.402       .  A
C49         C724   1.414       .  A
C50          C51   1.401       .  A
C50          H55   1.084       .  S
C51         C597   1.477       .  S
C51          C52   1.410       .  A
C52        C1253   1.477       .  S
C52         C729   1.401       .  A
C53         C728   1.406       .  A
C53          H54   1.084       .  S
N56         C737   1.353   1_545  A
N56        C1412   1.356       .  A
N56        H2116   1.041       .  S
N57          C64   1.347       .  A
N57          C65   1.350       .  A
N58          C63   1.349       .  A
N58          C62   1.347       .  A
N58          H89   1.042       .  S
N59          C66   1.345       .  A
N59          C67   1.351       .  A
C60        N1408   1.356       .  A
C60          C76   1.418       .  A
C60        C1420   1.387       .  A
C61         N732   1.355       .  A
C61          C77   1.418       .  A
C61         C745   1.386       .  A
C62          C70   1.386       .  A
C62         C755   1.405       .  A
C63          C71   1.385       .  A
C63        C1430   1.407   1_455  A
C64          C76   1.411       .  A
C64          C72   1.387       .  A
C65          C79   1.404       .  A
C65          C73   1.379       .  A
C66          C74   1.390       .  A
C66          C77   1.409       .  A
C67          C75   1.379       .  A
C67          C78   1.403       .  A
C68          C69   1.381   1_545  A
C68        C1412   1.387       .  A
C68          H80   1.082       .  S
C69         C737   1.388       .  A
C69          H81   1.082       .  S
C70          C71   1.374       .  A
C70          H82   1.082       .  S
C71          H83   1.080       .  S
C72          C73   1.377       .  A
C72          H84   1.082       .  S
C73          H85   1.079       .  S
C74          C75   1.376       .  A
C74          H86   1.082       .  S
C75          H87   1.079       .  S
C76         C243   1.487       .  S
C78         C568   1.486       .  S
C78        C1415   1.407       .  A
C79         C588   1.481       .  S
C79         C738   1.404   1_545  A
H88        N2084   1.041   1_655  S
C90         C528   1.487       .  S
C90          C95   1.403       .  A
C90        C1443   1.417       .  A
C91         C648   1.482       .  S
C91          C92   1.402       .  A
C91        C1442   1.417   1_455  A
C92          C93   1.402       .  A
C92          H97   1.084       .  S
C93         C537   1.485       .  S
C93          C94   1.414   1_455  A
C94        C1909   1.477       .  S
C94        C1447   1.402       .  A
C95        C1446   1.402       .  A
C95          H96   1.084       .  S
N98         C103   1.348       .  A
N98         C102   1.352       .  A
N98         H130   1.040       .  S
N99         C106   1.352       .  A
N99         C107   1.346       .  A
N100        C105   1.355       .  A
N100        C104   1.358       .  A
N100        H131   1.041       .  S
N101        C108   1.355       .  A
N101        C109   1.353       .  A
C102        C110   1.388       .  A
C102        C118   1.412       .  A
C103        C119   1.408       .  A
C103        C111   1.388       .  A
C104        C112   1.387       .  A
C104        C121   1.423       .  A
C105        C120   1.422       .  A
C105        C113   1.387       .  A
C106        C118   1.404       .  A
C106        C114   1.379       .  A
C107        C121   1.410       .  A
C107        C115   1.388       .  A
C108        C116   1.382       .  A
C108        C119   1.411       .  A
C109        C117   1.388       .  A
C109        C120   1.420       .  A
C110        C111   1.373       .  A
C110        H122   1.082       .  S
C111        H123   1.082       .  S
C112        C113   1.384       .  A
C112        H124   1.082       .  S
C113        H125   1.082       .  S
C114        C115   1.374       .  A
C114        H126   1.079       .  S
C115        H127   1.082       .  S
C116        C117   1.371       .  A
C116        H128   1.083       .  S
C117        H129   1.077       .  S
C118        C628   1.487       .  S
C119        C517   1.481       .  S
C120        C316   1.493       .  S
C121        C301   1.487       .  S
N132        C137   1.355       .  A
N132        C136   1.352       .  A
N132        H164   1.041       .  S
N133        C140   1.348       .  A
N133        C141   1.353       .  A
N134        C139   1.349       .  A
N134        C138   1.350       .  A
N134        H165   1.041       .  S
N135        C142   1.349       .  A
N135        C143   1.351       .  A
C136        C144   1.388       .  A
C136        C152   1.417       .  A
C137        C153   1.416       .  A
C137        C145   1.387       .  A
C138        C146   1.387       .  A
C138        C155   1.410       .  A
C139        C154   1.409       .  A
C139        C147   1.388       .  A
C140        C152   1.413       .  A
C140        C148   1.389       .  A
C141        C155   1.405       .  A
C141        C149   1.378       .  A
C142        C150   1.387       .  A
C142        C153   1.412       .  A
C143        C151   1.379       .  A
C143        C154   1.405       .  A
C144        C145   1.382       .  A
C144        H156   1.082       .  S
C145        H157   1.082       .  S
C146        C147   1.374       .  A
C146        H158   1.082       .  S
C147        H159   1.082       .  S
C148        C149   1.376       .  A
C148        H160   1.082       .  S
C149        H161   1.080       .  S
C150        C151   1.374       .  A
C150        H162   1.082       .  S
C151        H163   1.078       .  S
C153        C248   1.486       .  S
C154        C548   1.482       .  S
C155        C608   1.487       .  S
C166        C497   1.482       .  S
C166        C171   1.398   1_554  A
C166       C1519   1.413       .  A
C167       C1164   1.485       .  S
C167       C1518   1.413   1_455  A
C167        C844   1.403   1_554  A
C168        C843   1.399       .  A
C168       C1521   1.402   1_554  A
C168        H173   1.084   1_554  S
C169        C448   1.497       .  S
C169       C1520   1.402   1_556  A
C169        C846   1.430       .  A
C170        C457   1.489       .  S
C170        C171   1.404       .  A
C170        C845   1.428       .  A
C171        H172   1.084       .  S
N174        C179   1.347       .  A
N174        C178   1.345   1_545  A
N174        H206   1.041       .  S
N175        C182   1.350       .  A
N175        C183   1.342       .  A
N176        C180   1.362       .  A
N176        C857   1.356       .  A
N176        H207   1.037       .  S
N177        C184   1.355       .  A
N177        C185   1.349       .  A
C178        C186   1.382       .  A
C178        C870   1.400       .  A
C179        C195   1.407       .  A
C179        C187   1.390   1_545  A
C180        C188   1.391       .  A
C180        C197   1.435       .  A
C181        N852   1.357       .  A
C181        C196   1.428       .  A
C181        C865   1.386       .  A
C182        C194   1.405       .  A
C182        C190   1.382       .  A
C183        C197   1.416       .  A
C183        C191   1.391       .  A
C184        C192   1.378       .  A
C184        C195   1.411       .  A
C185        C193   1.391       .  A
C185        C196   1.422       .  A
C186        C187   1.372       .  A
C186        H198   1.083       .  S
C187        H199   1.078       .  S
C188        C189   1.381       .  A
C188        H200   1.078       .  S
C189        C857   1.385       .  A
C189        H201   1.081       .  S
C190        C191   1.380       .  A
C190        H202   1.082       .  S
C191        H203   1.082       .  S
C192        C193   1.372       .  A
C192        H204   1.080       .  S
C193        H205   1.077       .  S
C194        C468   1.485       .  S
C194        C854   1.401       .  A
C195        C428   1.493       .  S
C196        C303   1.489       .  S
C197        C320   1.502       .  S
N208        C213   1.346       .  A
N208        C212   1.346       .  A
N208        H240   1.042       .  S
N209        C216   1.353       .  A
N209        C217   1.346       .  A
N210        C214   1.357   1_655  A
N210       C1567   1.356       .  A
N210       H1593   1.042       .  S
N211        C218   1.352       .  A
N211        C219   1.346       .  A
C212        C220   1.387       .  A
C212       C1580   1.407       .  A
C213        C229   1.406       .  A
C213        C221   1.388       .  A
C214        C222   1.389       .  A
C214        C231   1.424       .  A
C215       N1562   1.356       .  A
C215        C230   1.421       .  A
C215       C1575   1.386       .  A
C216        C228   1.410       .  A
C216        C224   1.382       .  A
C217        C231   1.411       .  A
C217        C225   1.387       .  A
C218        C226   1.383       .  A
C218        C229   1.406       .  A
C219        C227   1.390       .  A
C219        C230   1.411       .  A
C220        C221   1.378       .  A
C220        H232   1.082       .  S
C221        H233   1.082       .  S
C222        C223   1.385   1_455  A
C222        H234   1.081       .  S
C223       C1567   1.386       .  A
C223        H235   1.082       .  S
C224        C225   1.379       .  A
C224        H236   1.081       .  S
C225        H237   1.082       .  S
C226        C227   1.376       .  A
C226        H238   1.082       .  S
C227        H239   1.082       .  S
C228        C437   1.491       .  S
C228       C1564   1.407   1_455  A
C229        C397   1.478       .  S
C230        C311   1.481       .  S
C231        C298   1.492       .  S
H241       N1562   1.042       .  S
In242       O244   2.253       .  S
In242       O245   2.291       .  S
In242       O253   2.254       .  S
In242       O247   2.283       .  S
In242       O249   2.267       .  S
In242       O250   2.275       .  S
In242       O251   2.240       .  S
In242       O254   2.230       .  S
C243        O249   1.260       .  A
C243        O251   1.260       .  A
O244        C252   1.261       .  A
O245        C252   1.259       .  A
C246        O253   1.262       .  A
C246        O247   1.258       .  A
C246        C344   1.496       .  S
C248        O250   1.261       .  A
C248        O254   1.259       .  A
C252        C275   1.498       .  S
N255        C259   1.356   1_565  A
N255        C936   1.355       .  A
N255        H963   1.042       .  S
N256        C263   1.350       .  A
N256        C264   1.354       .  A
N257        C262   1.348       .  A
N257        C261   1.346       .  A
N257        H288   1.041       .  S
N258        C265   1.346       .  A
N258        C266   1.351       .  A
C259        C267   1.387   1_545  A
C259        C275   1.422       .  A
C260        N931   1.357       .  A
C260        C276   1.424       .  A
C260        C944   1.387       .  A
C261        C269   1.389       .  A
C261        C954   1.406       .  A
C262        C277   1.405       .  A
C262        C270   1.386       .  A
C263        C275   1.414       .  A
C263        C271   1.384       .  A
C264        C278   1.408       .  A
C264        C272   1.382       .  A
C265        C273   1.389       .  A
C265        C276   1.410       .  A
C266        C274   1.379       .  A
C266        C277   1.402       .  A
C267        C268   1.386       .  A
C267        H279   1.082   1_565  S
C268        C936   1.388       .  A
C268        H280   1.082       .  S
C269        C270   1.374       .  A
C269        H281   1.082       .  S
C270        H282   1.082       .  S
C271        C272   1.373       .  A
C271        H283   1.078       .  S
C272        H284   1.081       .  S
C273        C274   1.374       .  A
C273        H285   1.082       .  S
C274        H286   1.080       .  S
C277        C388   1.479       .  S
C278        C477   1.480       .  S
C278        C937   1.408   1_545  A
H287        N931   1.041       .  S
C289        C417   1.476       .  S
C289        C290   1.412       .  A
C289        C294   1.399   1_556  A
C290        C408   1.477       .  S
C290        C291   1.402       .  A
C291        C292   1.401   1_556  A
C291        H296   1.084       .  S
C292        C377   1.479       .  S
C292        C293   1.414       .  A
C293        C368   1.475       .  S
C293        C294   1.398       .  A
C294        H295   1.084       .  S
In297       O299   2.239       .  S
In297       O300   2.283       .  S
In297       O308   2.231       .  S
In297       O302   2.283       .  S
In297       O304   2.283       .  S
In297       O305   2.270       .  S
In297       O306   2.244       .  S
In297       O309   2.242       .  S
C298        O304   1.259       .  A
C298        O306   1.258       .  A
O299        C307   1.260       .  A
O300        C307   1.261       .  A
C301        O308   1.261       .  A
C301        O302   1.261       .  A
C303        O305   1.260       .  A
C303        O309   1.262       .  A
In310       O312   2.221       .  S
In310       O313   2.274       .  S
In310       O321   2.243       .  S
In310       O315   2.272       .  S
In310       O317   2.281       .  S
In310       O318   2.288       .  S
In310       O319   2.225       .  S
In310       O322   2.237       .  S
C311        O317   1.261       .  A
C311        O319   1.258       .  A
O312        C320   1.263       .  A
O313        C320   1.265       .  A
C314        O321   1.258       .  A
C314        O315   1.255       .  A
C316        O318   1.263       .  A
C316        O322   1.257       .  A
N323        C327   1.357       .  A
N323       C1680   1.357       .  A
N323       H1707   1.040       .  S
N324        C331   1.347       .  A
N324        C332   1.352       .  A
N325        C330   1.349       .  A
N325        C329   1.349       .  A
N325        H356   1.040       .  S
N326        C333   1.350       .  A
N326        C334   1.354       .  A
C327        C335   1.387       .  A
C327        C343   1.424       .  A
C328       N1675   1.357       .  A
C328        C344   1.424       .  A
C328       C1688   1.387       .  A
C329        C337   1.388       .  A
C329       C1698   1.410   1_455  A
C330        C345   1.409       .  A
C330        C338   1.388       .  A
C331        C343   1.411       .  A
C331        C339   1.389       .  A
C332        C346   1.404       .  A
C332        C340   1.379       .  A
C333        C341   1.385       .  A
C333        C344   1.415       .  A
C334        C342   1.381       .  A
C334        C345   1.406       .  A
C335        C336   1.386       .  A
C335        H347   1.082       .  S
C336       C1680   1.387       .  A
C336        H348   1.082       .  S
C337        C338   1.375       .  A
C337        H349   1.083       .  S
C338        H350   1.082       .  S
C339        C340   1.373       .  A
C339        H351   1.082       .  S
C340        H352   1.079       .  S
C341        C342   1.372       .  A
C341        H353   1.078       .  S
C342        H354   1.081       .  S
C345        C357   1.480       .  S
C346        C508   1.484       .  S
C346       C1681   1.410       .  A
H355       N1675   1.040       .  S
C357        C358   1.408       .  A
C357        C362   1.403       .  A
C358        C359   1.396       .  A
C358       Br374   1.918       .  S
C359        C360   1.401       .  A
C359        H363   1.083       .  S
C360        C364   1.470       .  S
C360        C361   1.405       .  A
C361        C362   1.398       .  A
C361       Br373   1.917       .  S
C362        H365   1.083       .  S
C364        C366   1.400       .  A
C364        C370   1.407       .  A
C366        C367   1.399       .  A
C366        H371   1.083       .  S
C367        C368   1.408       .  A
C367       Br375   1.915       .  S
C368        C369   1.401       .  A
C369        C370   1.395       .  A
C369        H372   1.084       .  S
C370       Br376   1.921       .  S
C377        C378   1.408       .  A
C377        C382   1.400       .  A
C378        C379   1.401       .  A
C378       Br394   1.917       .  S
C379        C380   1.403       .  A
C379        H383   1.081       .  S
C380        C384   1.479       .  S
C380        C381   1.411       .  A
C381        C382   1.394       .  A
C381       Br393   1.922       .  S
C382        H385   1.083       .  S
C384        C386   1.403       .  A
C384        C390   1.410       .  A
C386        C387   1.396       .  A
C386        H391   1.082       .  S
C387        C388   1.405       .  A
C387       Br395   1.919       .  S
C388        C389   1.401       .  A
C389        C390   1.400       .  A
C389        H392   1.083       .  S
C390       Br396   1.919       .  S
C397        C398   1.404       .  A
C397        C402   1.400       .  A
C398        C399   1.401       .  A
C398       Br414   1.915       .  S
C399        C400   1.407       .  A
C399        H403   1.083       .  S
C400        C404   1.482       .  S
C400        C401   1.410       .  A
C401        C402   1.394       .  A
C401       Br413   1.919       .  S
C402        H405   1.084       .  S
C404        C406   1.406       .  A
C404        C410   1.409       .  A
C406        C407   1.397       .  A
C406        H411   1.084       .  S
C407        C408   1.404       .  A
C407       Br415   1.918       .  S
C408        C409   1.403       .  A
C409        C410   1.399       .  A
C409        H412   1.083       .  S
C410       Br416   1.919       .  S
C417        C418   1.408       .  A
C417        C422   1.400       .  A
C418        C419   1.399       .  A
C418       Br434   1.918       .  S
C419        C420   1.402       .  A
C419        H423   1.083       .  S
C420        C424   1.474       .  S
C420        C421   1.409       .  A
C421        C422   1.396       .  A
C421       Br433   1.921       .  S
C422        H425   1.083       .  S
C424        C426   1.398       .  A
C424        C430   1.408       .  A
C426        C427   1.395       .  A
C426        H431   1.084       .  S
C427        C428   1.415       .  A
C427       Br435   1.919       .  S
C428        C429   1.404       .  A
C429        C430   1.400       .  A
C429        H432   1.081       .  S
C430       Br436   1.918       .  S
C437        C442   1.403       .  A
C437       C1790   1.409       .  A
C438        C439   1.391       .  A
C438       C1789   1.409       .  A
C438       Br454   1.924       .  S
C439       C1792   1.407       .  A
C439        H443   1.081       .  S
C440        C444   1.502       .  S
C440        C441   1.422       .  A
C440       C1791   1.407       .  A
C441        C442   1.406       .  A
C441       Br453   1.919       .  S
C442        H445   1.083       .  S
C444        C450   1.419       .  A
C444       C1798   1.409       .  A
C446        C447   1.399       .  A
C446       C1796   1.409       .  A
C446        H451   1.079       .  S
C447        C448   1.409       .  A
C447      Br1131   1.918   1_545  S
C448       C1801   1.403       .  A
C449        C450   1.399       .  A
C449       C1800   1.403       .  A
C449        H452   1.083       .  S
C450       Br456   1.922       .  S
Br455      C1123   1.917       .  S
C457        C458   1.413       .  A
C457       C1138   1.403       .  A
C458        C459   1.400       .  A
C458       Br474   1.921       .  S
C459        C460   1.406       .  A
C459        H463   1.083       .  S
C460        C464   1.486       .  S
C460       C1137   1.413       .  A
C461        C462   1.393       .  A
C461       C1136   1.411       .  A
C461       Br473   1.920       .  S
C462       C1133   1.404       .  A
C462        H465   1.083       .  S
C464        C470   1.417       .  A
C464       C1142   1.401       .  A
C466        C467   1.388       .  A
C466       C1140   1.400       .  A
C466        H471   1.083       .  S
C467       C1144   1.411       .  A
C467       Br475   1.923       .  S
C468        C469   1.402       .  A
C468       C1143   1.412       .  A
C469        C470   1.402       .  A
C469        H472   1.083       .  S
C470       Br476   1.920       .  S
C477        C478   1.410       .  A
C477       C1158   1.401   1_545  A
C478        C479   1.399       .  A
C478       Br494   1.918       .  S
C479        C480   1.400       .  A
C479        H483   1.082       .  S
C480        C484   1.473       .  S
C480       C1157   1.405   1_545  A
C481        C482   1.397       .  A
C481       C1156   1.410       .  A
C481       Br493   1.914       .  S
C482       C1153   1.401       .  A
C482        H485   1.084       .  S
C484        C490   1.406       .  A
C484       C1162   1.402       .  A
C486        C487   1.399       .  A
C486       C1160   1.404       .  A
C486        H491   1.084       .  S
C487       C1164   1.409       .  A
C487       Br495   1.920       .  S
C488        C843   1.484       .  S
C488        C489   1.405       .  A
C488       C1163   1.411   1_545  A
C489        C490   1.395       .  A
C489        H492   1.083   1_455  S
C490       Br496   1.919       .  S
C497        C502   1.404       .  A
C497       C1850   1.406       .  A
C498        C499   1.391       .  A
C498       C1849   1.406       .  A
C498       Br514   1.915   1_655  S
C499       C1852   1.404       .  A
C499        H503   1.084       .  S
C500        C504   1.484       .  S
C500        C501   1.410       .  A
C500       C1851   1.404       .  A
C501        C502   1.402       .  A
C501       Br513   1.910       .  S
C502        H505   1.083       .  S
C504        C506   1.405       .  A
C504        C510   1.411       .  A
C506        C507   1.403       .  A
C506       H1863   1.083       .  S
C507        C508   1.409       .  A
C507      Br1867   1.918       .  S
C508        C509   1.400       .  A
C509        C510   1.394       .  A
C509        H512   1.084       .  S
C510       Br516   1.919       .  S
H511       C1858   1.083       .  S
Br515      C1859   1.918       .  S
C517        C518   1.407       .  A
C517        C522   1.400       .  A
C518        C519   1.400       .  A
C518       Br534   1.918       .  S
C519        C520   1.407       .  A
C519        H523   1.084       .  S
C520        C524   1.482       .  S
C520        C521   1.411       .  A
C521        C522   1.395       .  A
C521       Br533   1.919       .  S
C522        H525   1.084       .  S
C524        C526   1.404       .  A
C524        C530   1.409       .  A
C526        C527   1.397       .  A
C526        H531   1.084       .  S
C527        C528   1.409       .  A
C527       Br535   1.918       .  S
C528        C529   1.406       .  A
C529        C530   1.400       .  A
C529        H532   1.083       .  S
C530       Br536   1.919       .  S
C537        C538   1.409       .  A
C537        C542   1.406       .  A
C538        C539   1.397       .  A
C538       Br554   1.917       .  S
C539        C540   1.401       .  A
C539        H543   1.084       .  S
C540        C544   1.478       .  S
C540        C541   1.407       .  A
C541        C542   1.402       .  A
C541       Br553   1.918       .  S
C542        H545   1.083   1_455  S
C544        C546   1.404       .  A
C544        C550   1.408       .  A
C546        C547   1.401       .  A
C546        H551   1.082       .  S
C547        C548   1.407       .  A
C547       Br555   1.917       .  S
C548        C549   1.401       .  A
C549        C550   1.396       .  A
C549        H552   1.084       .  S
C550       Br556   1.915       .  S
C557       C1446   1.477       .  S
C557        C558   1.408       .  A
C557       C1914   1.397       .  A
C558        C559   1.402       .  A
C558       Br574   1.917       .  S
C559        C560   1.405       .  A
C559        H563   1.082       .  S
C560        C564   1.485       .  S
C560       C1913   1.413       .  A
C561        C562   1.393       .  A
C561       C1912   1.413       .  A
C561       Br573   1.918   1_655  S
C562       C1909   1.397       .  A
C562        H565   1.084   1_655  S
C564        C566   1.403       .  A
C564       C1922   1.411       .  A
C566        C567   1.396       .  A
C566        H571   1.084       .  S
C567        C568   1.407       .  A
C567       Br575   1.918       .  S
C568        C569   1.404       .  A
C569       C1922   1.404       .  A
C569       H1924   1.083       .  S
C570       C1916   1.411       .  A
C570       C1921   1.404       .  A
C570       Br576   1.919       .  S
H572       C1921   1.083       .  S
C577        C728   1.481       .  S
C577        C578   1.410       .  A
C577       C1258   1.400   1_545  A
C578        C579   1.403       .  A
C578       Br594   1.917       .  S
C579        C580   1.402       .  A
C579        H583   1.082       .  S
C580        C584   1.474       .  S
C580       C1257   1.407       .  A
C581        C582   1.396       .  A
C581       C1256   1.409       .  A
C581       Br593   1.920       .  S
C582       C1253   1.400       .  A
C582        H585   1.083       .  S
C584        C590   1.407       .  A
C584       C1262   1.402       .  A
C586        C587   1.399       .  A
C586       C1260   1.402       .  A
C586        H591   1.084       .  S
C587       C1264   1.409       .  A
C587       Br595   1.918       .  S
C588        C589   1.403       .  A
C588       C1263   1.408       .  A
C589        C590   1.396       .  A
C589        H592   1.084       .  S
C590       Br596   1.918       .  S
C597        C598   1.404       .  A
C597        C602   1.403       .  A
C598        C599   1.394       .  A
C598       Br614   1.919       .  S
C599        C600   1.407       .  A
C599        H603   1.084       .  S
C600        C604   1.486       .  S
C600        C601   1.410       .  A
C601        C602   1.402       .  A
C601       Br613   1.915       .  S
C602        H605   1.083       .  S
C604        C606   1.404       .  A
C604        C610   1.410       .  A
C606        C607   1.402       .  A
C606        H611   1.083       .  S
C607        C608   1.409       .  A
C607       Br615   1.917       .  S
C608        C609   1.402       .  A
C609        C610   1.399       .  A
C609        H612   1.083       .  S
C610       Br616   1.917       .  S
C617        C618   1.404       .  A
C617        C622   1.407       .  A
C618        C619   1.395       .  A
C618       Br634   1.917       .  S
C619        C620   1.405       .  A
C619        H623   1.084       .  S
C620        C624   1.486       .  S
C620        C621   1.411       .  A
C621        C622   1.406       .  A
C621       Br633   1.918   1_545  S
C622        H625   1.083   1_545  S
C624        C626   1.406       .  A
C624        C630   1.411       .  A
C626        C627   1.399       .  A
C626        H631   1.084       .  S
C627        C628   1.406       .  A
C627       Br635   1.915       .  S
C628        C629   1.403       .  A
C629        C630   1.400       .  A
C629        H632   1.084       .  S
C630       Br636   1.913       .  S
C637        C638   1.409       .  A
C637        C642   1.406       .  A
C638        C639   1.401       .  A
C638       Br654   1.917       .  S
C639        C640   1.402       .  A
C639        H643   1.083       .  S
C640        C644   1.478       .  S
C640        C641   1.406       .  A
C641        C642   1.400       .  A
C641       Br653   1.919       .  S
C642        H645   1.083       .  S
C644        C646   1.402       .  A
C644       C2002   1.411       .  A
C646        C647   1.402       .  A
C646        H651   1.083       .  S
C647        C648   1.411       .  A
C647       Br655   1.916       .  S
C648       C2001   1.400   1_455  A
C649        C650   1.392       .  A
C649       C2000   1.400       .  A
C649        H652   1.084       .  S
C650       C1996   1.411       .  A
C650       Br656   1.918       .  S
C657        C662   1.403       .  A
C657       C1334   1.405       .  A
C658        C659   1.395       .  A
C658       C1333   1.404   1_545  A
C658       Br674   1.918       .  S
C659       C1336   1.403   1_545  A
C659        H663   1.081       .  S
C660        C664   1.473       .  S
C660        C661   1.407       .  A
C660       C1335   1.402       .  A
C661        C662   1.398       .  A
C661       Br673   1.917       .  S
C662        H665   1.084       .  S
C664        C666   1.401       .  A
C664       C1346   1.407       .  A
C666        C667   1.396       .  A
C666        H671   1.084       .  S
C667        C668   1.408       .  A
C667       Br675   1.918       .  S
C668       C1345   1.404       .  A
C669        C670   1.398       .  A
C669       C1344   1.404       .  A
C669        H672   1.083       .  S
C670       C1340   1.406       .  A
C670       Br676   1.917       .  S
In677       O679   2.226       .  S
In677       O680   2.272       .  S
In677       O688   2.214       .  S
In677       O682   2.262       .  S
In677       O684   2.272       .  S
In677       O685   2.262       .  S
In677       O686   2.224       .  S
In677       O689   2.218       .  S
C678        O684   1.260       .  A
C678        O686   1.260       .  A
C678        C952   1.483       .  S
O679        C687   1.261       .  A
O680        C687   1.260       .  A
C681        O688   1.258       .  A
C681        O682   1.261       .  A
C681        C753   1.475       .  S
C683        O685   1.261       .  A
C683        O689   1.260       .  A
C683        C828   1.478       .  S
C687       C1019   1.483       .  S
N690       C2046   1.358   1_545  A
N691        C698   1.350       .  A
N691        C699   1.354       .  A
N692        C697   1.347       .  A
N692        C696   1.348       .  A
N692        H723   1.045       .  S
N693        C700   1.344       .  A
N693        C701   1.349       .  A
C694       N2042   1.358   1_565  A
C694       C2054   1.387   1_565  A
C694        C710   1.425       .  A
C695        C711   1.420       .  A
C696        C704   1.387       .  A
C697       C2064   1.407       .  A
C697        C705   1.387       .  A
C698        C710   1.420       .  A
C698        C706   1.390       .  A
C699        C713   1.404   1_565  A
C699        C707   1.379       .  A
C700        C708   1.388       .  A
C700        C711   1.407       .  A
C701        C709   1.380       .  A
C701        C712   1.402       .  A
C702       C2046   1.387   1_545  A
C702        C703   1.383   1_655  A
C702        H714   1.082   1_545  S
C703        H715   1.081       .  S
C704        C705   1.371       .  A
C704        H716   1.082       .  S
C705        H717   1.080       .  S
C706        C707   1.367       .  A
C706        H718   1.073       .  S
C707        H719   1.083       .  S
C708        C709   1.377       .  A
C708        H720   1.082       .  S
C709        H721   1.081       .  S
C710        C990   1.493       .  S
C711        C983   1.482       .  S
C712       C1313   1.479       .  S
C712       C2049   1.407   1_455  A
C713       C1333   1.477   1_545  S
C724       C1293   1.478       .  S
C724        C729   1.401       .  A
C725       C1344   1.480       .  S
C725        C726   1.402       .  A
C726        C727   1.400       .  A
C726        H731   1.084       .  S
C727       C1273   1.480       .  S
C727        C728   1.412   1_565  A
C729        H730   1.084       .  S
N732       C2088   1.356       .  A
N732       H1440   1.041       .  S
N733        C740   1.349       .  A
N733        C741   1.353       .  A
N734        C739   1.348       .  A
N734        C738   1.345       .  A
N734        H765   1.042   1_565  S
N735        C742   1.345       .  A
N735        C743   1.352       .  A
C736       N2084   1.356       .  A
C736       C2096   1.388       .  A
C736        C752   1.422       .  A
C737        C753   1.418       .  A
C738        C746   1.386       .  A
C739       C2106   1.406   1_455  A
C739        C747   1.386       .  A
C740        C752   1.415       .  A
C740        C748   1.389       .  A
C741        C755   1.406       .  A
C741        C749   1.379       .  A
C742        C750   1.390       .  A
C742        C753   1.411       .  A
C743        C751   1.379       .  A
C743        C754   1.404       .  A
C744       C2088   1.388       .  A
C744        C745   1.383       .  A
C744        H756   1.082       .  S
C745        H757   1.082       .  S
C746        C747   1.374       .  A
C746        H758   1.080       .  S
C747        H759   1.080       .  S
C748        C749   1.376       .  A
C748        H760   1.082       .  S
C749        H761   1.079       .  S
C750        C751   1.378       .  A
C750        H762   1.083       .  S
C751        H763   1.080       .  S
C752        C919   1.492       .  S
C754       C1244   1.487       .  S
C754       C2091   1.406       .  A
C755       C1264   1.484       .  S
H764       N1408   1.041   1_655  S
C766       C1204   1.484       .  S
C766       C2119   1.413       .  A
C766        C771   1.401       .  A
C767       C1324   1.478       .  S
C767       C2118   1.413   1_455  A
C767        C768   1.402       .  A
C768        C769   1.404       .  A
C768        H773   1.084       .  S
C769       C1213   1.487       .  S
C769        C770   1.415   1_455  A
C770       C2585   1.480       .  S
C770       C2123   1.404       .  A
C771       C2122   1.404       .  A
C771        H772   1.084       .  S
N774        C779   1.349       .  A
N774        C778   1.350       .  A
N774        H806   1.039       .  S
N775        C782   1.351       .  A
N775        C783   1.348       .  A
N776        C781   1.355       .  A
N776        C780   1.360       .  A
N776        H807   1.039       .  S
N777        C784   1.357       .  A
N777        C785   1.354       .  A
C778        C786   1.389       .  A
C778        C794   1.411       .  A
C779        C795   1.408       .  A
C779        C787   1.387       .  A
C780        C788   1.386       .  A
C780        C797   1.423       .  A
C781        C796   1.425       .  A
C781        C789   1.388       .  A
C782        C794   1.405       .  A
C782        C790   1.379       .  A
C783        C797   1.411       .  A
C783        C791   1.388       .  A
C784        C792   1.379       .  A
C784        C795   1.412       .  A
C785        C793   1.389       .  A
C785        C796   1.425       .  A
C786        C787   1.373       .  A
C786        H798   1.082       .  S
C787        H799   1.083       .  S
C788        C789   1.382       .  A
C788        H800   1.081       .  S
C789        H801   1.082       .  S
C790        C791   1.374       .  A
C790        H802   1.079       .  S
C791        H803   1.082       .  S
C792        C793   1.368       .  A
C792        H804   1.083       .  S
C793        H805   1.073       .  S
C794       C1304   1.483       .  S
C795       C1193   1.487       .  S
C796        C992   1.496       .  S
C797        C977   1.494       .  S
N808        C813   1.354       .  A
N808        C812   1.354       .  A
N808        H840   1.041       .  S
N809        C816   1.347       .  A
N809        C817   1.351       .  A
N810        C815   1.350       .  A
N810        C814   1.351       .  A
N810        H841   1.041       .  S
N811        C818   1.350       .  A
N811        C819   1.353       .  A
C812        C820   1.387       .  A
C812        C828   1.417       .  A
C813        C829   1.419       .  A
C813        C821   1.388       .  A
C814        C822   1.388       .  A
C814        C831   1.410       .  A
C815        C830   1.410       .  A
C815        C823   1.388       .  A
C816        C828   1.410       .  A
C816        C824   1.389       .  A
C817        C831   1.402       .  A
C817        C825   1.378       .  A
C818        C826   1.388       .  A
C818        C829   1.415       .  A
C819        C827   1.380       .  A
C819        C830   1.407       .  A
C820        C821   1.381       .  A
C820        H832   1.082       .  S
C821        H833   1.082       .  S
C822        C823   1.372       .  A
C822        H834   1.082       .  S
C823        H835   1.082       .  S
C824        C825   1.373       .  A
C824        H836   1.082       .  S
C825        H837   1.079       .  S
C826        C827   1.373       .  A
C826        H838   1.082       .  S
C827        H839   1.079       .  S
C829        C924   1.487       .  S
C830       C1224   1.484       .  S
C831       C1284   1.484       .  S
C842       C1173   1.483       .  S
C842       C2195   1.414   1_565  A
C842        C847   1.400       .  A
C843       C2194   1.414   1_445  A
C844       C2197   1.406       .  A
C844        H849   1.084       .  S
C845       C1124   1.498       .  S
C845       C2196   1.406       .  A
C846       C1133   1.493       .  S
C846        C847   1.407   1_546  A
C847        H848   1.083       .  S
N850        C855   1.346       .  A
N850        C854   1.345       .  A
N850        H882   1.042       .  S
N851        C858   1.349       .  A
N851        C859   1.344       .  A
N852        C856   1.363   1_545  A
N852        H883   1.036       .  S
N853        C860   1.356       .  A
N853        C861   1.350       .  A
C854        C862   1.383       .  A
C855        C871   1.406       .  A
C855        C863   1.391       .  A
C856        C864   1.390       .  A
C856        C873   1.436       .  A
C857        C872   1.426       .  A
C858        C870   1.403       .  A
C858        C866   1.381       .  A
C859        C873   1.414       .  A
C859        C867   1.391       .  A
C860        C868   1.380       .  A
C860        C871   1.413       .  A
C861        C869   1.391       .  A
C861        C872   1.422       .  A
C862        C863   1.371       .  A
C862        H874   1.083       .  S
C863        H875   1.079       .  S
C864        C865   1.382   1_565  A
C864        H876   1.080       .  S
C865        H877   1.081       .  S
C866        C867   1.379       .  A
C866        H878   1.082       .  S
C867        H879   1.081       .  S
C868        C869   1.374       .  A
C868        H880   1.081       .  S
C869        H881   1.079       .  S
C870       C1144   1.481   1_565  S
C871       C1104   1.491       .  S
C872        C979   1.490       .  S
C873        C996   1.503       .  S
N884        C889   1.348       .  A
N884        C888   1.349       .  A
N884        H916   1.042       .  S
N885        C892   1.353       .  A
N885        C893   1.346       .  A
N886       C2243   1.359       .  A
N886        C890   1.360   1_655  A
N886       H2269   1.041       .  S
N887        C894   1.354       .  A
N887        C895   1.348       .  A
C888        C896   1.386       .  A
C888       C2256   1.409       .  A
C889        C905   1.408       .  A
C889        C897   1.388       .  A
C890        C898   1.387       .  A
C890        C907   1.428       .  A
C891       N2238   1.359       .  A
C891        C906   1.429       .  A
C891       C2251   1.388       .  A
C892        C904   1.411       .  A
C892        C900   1.383       .  A
C893        C907   1.412       .  A
C893        C901   1.388       .  A
C894        C902   1.382       .  A
C894        C905   1.409       .  A
C895        C903   1.391       .  A
C895        C906   1.416       .  A
C896        C897   1.375       .  A
C896        H908   1.082       .  S
C897        H909   1.081       .  S
C898        C899   1.385   1_455  A
C898        H910   1.082       .  S
C899       C2243   1.388       .  A
C899        H911   1.082       .  S
C900        C901   1.378       .  A
C900        H912   1.081       .  S
C901        H913   1.082       .  S
C902        C903   1.376       .  A
C902        H914   1.082       .  S
C903        H915   1.082       .  S
C904       C1113   1.495       .  S
C904       C2240   1.409   1_455  A
C905       C1073   1.485       .  S
C906        C987   1.493       .  S
C907        C974   1.494       .  S
H917       N2238   1.041       .  S
In918       O920   2.258       .  S
In918       O921   2.287       .  S
In918       O929   2.249       .  S
In918       O923   2.291       .  S
In918       O925   2.275       .  S
In918       O926   2.267       .  S
In918       O927   2.240       .  S
In918       O930   2.237       .  S
C919        O925   1.260       .  A
C919        O927   1.260       .  A
O920        C928   1.261       .  A
O921        C928   1.258       .  A
C922        O929   1.261       .  A
C922        O923   1.258       .  A
C922       C1020   1.495       .  S
C924        O926   1.261       .  A
C924        O930   1.261       .  A
C928        C951   1.500       .  S
N931        C935   1.357       .  A
N932        C939   1.349       .  A
N932        C940   1.355       .  A
N933        C938   1.349       .  A
N933        C937   1.347       .  A
N933        H964   1.041       .  S
N934        C941   1.346       .  A
N934        C942   1.351       .  A
C935        C943   1.388       .  A
C935        C951   1.425       .  A
C936        C952   1.422       .  A
C937        C945   1.390       .  A
C938        C953   1.406       .  A
C938        C946   1.384       .  A
C939        C951   1.416       .  A
C939        C947   1.384       .  A
C940        C954   1.407       .  A
C940        C948   1.381       .  A
C941        C949   1.389       .  A
C941        C952   1.409       .  A
C942        C950   1.378       .  A
C942        C953   1.403       .  A
C943        C944   1.385       .  A
C943        H955   1.082       .  S
C944        H956   1.082       .  S
C945        C946   1.372       .  A
C945        H957   1.081       .  S
C946        H958   1.081       .  S
C947        C948   1.375       .  A
C947        H959   1.076       .  S
C948        H960   1.082       .  S
C949        C950   1.375       .  A
C949        H961   1.082       .  S
C950        H962   1.078       .  S
C953       C1064   1.484       .  S
C954       C1153   1.480       .  S
C965       C1093   1.480       .  S
C965        C966   1.416       .  A
C965        C970   1.401   1_556  A
C966       C1084   1.485       .  S
C966        C967   1.406   1_556  A
C967        C968   1.403       .  A
C967        H972   1.084       .  S
C968       C1053   1.485       .  S
C968        C969   1.415       .  A
C969       C1044   1.478       .  S
C969        C970   1.399       .  A
C970        H971   1.084       .  S
In973       O975   2.232       .  S
In973       O976   2.269       .  S
In973       O984   2.233       .  S
In973       O978   2.291       .  S
In973       O980   2.297       .  S
In973       O981   2.268       .  S
In973       O982   2.244       .  S
In973       O985   2.252       .  S
C974        O980   1.260       .  A
C974        O982   1.258       .  A
O975        C983   1.260       .  A
O976        C983   1.260       .  A
C977        O984   1.259       .  A
C977        O978   1.262       .  A
C979        O981   1.258       .  A
C979        O985   1.262       .  A
In986       O988   2.246       .  S
In986       O989   2.272       .  S
In986       O997   2.274       .  S
In986       O991   2.241       .  S
In986       O993   2.273       .  S
In986       O994   2.276       .  S
In986       O995   2.241       .  S
In986       O998   2.252       .  S
C987        O993   1.260       .  A
C987        O995   1.263       .  A
O988        C996   1.261       .  A
O989        C996   1.260       .  A
C990        O997   1.260       .  A
C990        O991   1.259       .  A
C992        O994   1.260       .  A
C992        O998   1.259       .  A
N999       C2356   1.355       .  A
N999       C1003   1.355       .  A
N999       H2383   1.040       .  S
N1000      C1007   1.347       .  A
N1000      C1008   1.352       .  A
N1001      C1006   1.347       .  A
N1001      C1005   1.349       .  A
N1001      H1032   1.039       .  S
N1002      C1009   1.351       .  A
N1002      C1010   1.354       .  A
C1003      C1011   1.389       .  A
C1003      C1019   1.423       .  A
C1004      N2351   1.355       .  A
C1004      C1020   1.420       .  A
C1004      C2364   1.386       .  A
C1005      C1013   1.386       .  A
C1005      C2374   1.409   1_455  A
C1006      C1021   1.408       .  A
C1006      C1014   1.388       .  A
C1007      C1019   1.411       .  A
C1007      C1015   1.389       .  A
C1008      C1022   1.405       .  A
C1008      C1016   1.378       .  A
C1009      C1017   1.382       .  A
C1009      C1020   1.412       .  A
C1010      C1018   1.382       .  A
C1010      C1021   1.406       .  A
C1011      C1012   1.387       .  A
C1011      H1023   1.082       .  S
C1012      C2356   1.386       .  A
C1012      H1024   1.082       .  S
C1013      C1014   1.376       .  A
C1013      H1025   1.081       .  S
C1014      H1026   1.082       .  S
C1015      C1016   1.372       .  A
C1015      H1027   1.082       .  S
C1016      H1028   1.078       .  S
C1017      C1018   1.368       .  A
C1017      H1029   1.077       .  S
C1018      H1030   1.082       .  S
C1021      C1033   1.476       .  S
C1022      C1184   1.485       .  S
C1022      C2357   1.409       .  A
H1031      N2351   1.040       .  S
C1033      C1034   1.405       .  A
C1033      C1038   1.402       .  A
C1034      C1035   1.396       .  A
C1034     Br1050   1.917       .  S
C1035      C1036   1.402       .  A
C1035      H1039   1.081       .  S
C1036      C1040   1.470       .  S
C1036      C1037   1.406       .  A
C1037      C1038   1.395       .  A
C1037     Br1049   1.917       .  S
C1038      H1041   1.084       .  S
C1040      C1042   1.401       .  A
C1040      C1046   1.407       .  A
C1042      C1043   1.399       .  A
C1042      H1047   1.083       .  S
C1043      C1044   1.408       .  A
C1043     Br1051   1.914       .  S
C1044      C1045   1.402       .  A
C1045      C1046   1.395       .  A
C1045      H1048   1.084       .  S
C1046     Br1052   1.921       .  S
C1053      C1054   1.410       .  A
C1053      C1058   1.401       .  A
C1054      C1055   1.404       .  A
C1054     Br1070   1.917       .  S
C1055      C1056   1.403       .  A
C1055      H1059   1.082       .  S
C1056      C1060   1.480       .  S
C1056      C1057   1.410       .  A
C1057      C1058   1.394       .  A
C1057     Br1069   1.920       .  S
C1058      H1061   1.083       .  S
C1060      C1062   1.402       .  A
C1060      C1066   1.410       .  A
C1062      C1063   1.396       .  A
C1062      H1067   1.084       .  S
C1063      C1064   1.407       .  A
C1063     Br1071   1.916       .  S
C1064      C1065   1.404       .  A
C1065      C1066   1.403       .  A
C1065      H1068   1.083       .  S
C1066     Br1072   1.918       .  S
C1073      C1074   1.406       .  A
C1073      C1078   1.403       .  A
C1074      C1075   1.401       .  A
C1074     Br1090   1.915       .  S
C1075      C1076   1.406       .  A
C1075      H1079   1.083       .  S
C1076      C1080   1.486       .  S
C1076      C1077   1.411       .  A
C1077      C1078   1.400       .  A
C1077     Br1089   1.919       .  S
C1078      H1081   1.084       .  S
C1080      C1082   1.406       .  A
C1080      C1086   1.409       .  A
C1082      C1083   1.399       .  A
C1082      H1087   1.084       .  S
C1083      C1084   1.407       .  A
C1083     Br1091   1.918       .  S
C1084      C1085   1.405       .  A
C1085      C1086   1.401       .  A
C1085      H1088   1.082       .  S
C1086     Br1092   1.918       .  S
C1093      C1094   1.408       .  A
C1093      C1098   1.403       .  A
C1094      C1095   1.398       .  A
C1094     Br1110   1.918       .  S
C1095      C1096   1.399       .  A
C1095      H1099   1.081       .  S
C1096      C1100   1.475       .  S
C1096      C1097   1.409       .  A
C1097      C1098   1.401       .  A
C1097     Br1109   1.920       .  S
C1098      H1101   1.083       .  S
C1100      C1102   1.399       .  A
C1100      C1106   1.406       .  A
C1102      C1103   1.396       .  A
C1102      H1107   1.084       .  S
C1103      C1104   1.413       .  A
C1103     Br1111   1.918       .  S
C1104      C1105   1.404       .  A
C1105      C1106   1.399       .  A
C1105      H1108   1.081       .  S
C1106     Br1112   1.916       .  S
C1113      C2466   1.409       .  A
C1113      C1118   1.404       .  A
C1114      C2465   1.409       .  A
C1114      C1115   1.391       .  A
C1114     Br1130   1.924       .  S
C1115      C2468   1.407       .  A
C1115      H1119   1.081       .  S
C1116      C1120   1.508       .  S
C1116      C2467   1.407       .  A
C1116      C1117   1.424       .  A
C1117      C1118   1.407       .  A
C1117     Br1129   1.918       .  S
C1118      H1121   1.083       .  S
C1120      C2474   1.410       .  A
C1120      C1126   1.422       .  A
C1122      C2472   1.410       .  A
C1122      C1123   1.402       .  A
C1122      H1127   1.079       .  S
C1123      C1124   1.409       .  A
C1124      C2477   1.401       .  A
C1125      C2476   1.401       .  A
C1125      C1126   1.399       .  A
C1125      H1128   1.083       .  S
C1126     Br1132   1.920       .  S
C1133      C1134   1.416   1_545  A
C1134      C1135   1.400       .  A
C1134     Br1150   1.921       .  S
C1135      C1136   1.405   1_565  A
C1135      H1139   1.083       .  S
C1136      C1140   1.484       .  S
C1137      C1138   1.393       .  A
C1137     Br1149   1.921       .  S
C1138      H1141   1.083       .  S
C1140      C1146   1.417   1_545  A
C1142      C1143   1.389       .  A
C1142      H1147   1.082       .  S
C1143     Br1151   1.924       .  S
C1144      C1145   1.401   1_545  A
C1145      C1146   1.402       .  A
C1145      H1148   1.083       .  S
C1146     Br1152   1.919       .  S
C1153      C1154   1.409       .  A
C1154      C1155   1.397       .  A
C1154     Br1170   1.918       .  S
C1155      C1156   1.403       .  A
C1155      H1159   1.084       .  S
C1156      C1160   1.479       .  S
C1157      C1158   1.394       .  A
C1157     Br1169   1.908       .  S
C1158      H1161   1.084       .  S
C1160      C1166   1.407       .  A
C1162      C1163   1.399   1_545  A
C1162      H1167   1.084   1_545  S
C1163     Br1171   1.920       .  S
C1164      C1165   1.406       .  A
C1165      C1166   1.397       .  A
C1165      H1168   1.083       .  S
C1166     Br1172   1.919       .  S
C1173      C2526   1.405       .  A
C1173      C1178   1.403       .  A
C1174      C2525   1.405       .  A
C1174      C1175   1.394       .  A
C1174     Br1190   1.919   1_655  S
C1175      C2528   1.407       .  A
C1175      H1179   1.083       .  S
C1176      C1180   1.493       .  S
C1176      C2527   1.407       .  A
C1176      C1177   1.414       .  A
C1177      C1178   1.404       .  A
C1177     Br1189   1.915   1_565  S
C1178      H1181   1.083   1_565  S
C1180      C1182   1.406       .  A
C1180      C1186   1.413       .  A
C1182      C1183   1.400       .  A
C1182      H2539   1.082       .  S
C1183      C1184   1.406       .  A
C1183     Br2543   1.918       .  S
C1184      C1185   1.401       .  A
C1185      C1186   1.399       .  A
C1185      H1188   1.083       .  S
C1186     Br1192   1.918       .  S
H1187      C2534   1.082       .  S
Br1191     C2535   1.918       .  S
C1193      C1194   1.408       .  A
C1193      C1198   1.402       .  A
C1194      C1195   1.402       .  A
C1194     Br1210   1.918       .  S
C1195      C1196   1.406       .  A
C1195      H1199   1.084       .  S
C1196      C1200   1.482       .  S
C1196      C1197   1.409       .  A
C1197      C1198   1.397       .  A
C1197     Br1209   1.920       .  S
C1198      H1201   1.084       .  S
C1200      C1202   1.403       .  A
C1200      C1206   1.409       .  A
C1202      C1203   1.396       .  A
C1202      H1207   1.084       .  S
C1203      C1204   1.408       .  A
C1203     Br1211   1.918       .  S
C1204      C1205   1.405       .  A
C1205      C1206   1.402       .  A
C1205      H1208   1.083       .  S
C1206     Br1212   1.918       .  S
C1213      C1214   1.409       .  A
C1213      C1218   1.406       .  A
C1214      C1215   1.397       .  A
C1214     Br1230   1.918       .  S
C1215      C1216   1.403       .  A
C1215      H1219   1.084       .  S
C1216      C1220   1.481       .  S
C1216      C1217   1.409       .  A
C1217      C1218   1.401       .  A
C1217     Br1229   1.919       .  S
C1218      H1221   1.083       .  S
C1220      C1222   1.405       .  A
C1220      C1226   1.409       .  A
C1222      C1223   1.401       .  A
C1222      H1227   1.083       .  S
C1223      C1224   1.407       .  A
C1223     Br1231   1.916       .  S
C1224      C1225   1.402       .  A
C1225      C1226   1.397       .  A
C1225      H1228   1.084       .  S
C1226     Br1232   1.915       .  S
C1233      C2122   1.480       .  S
C1233      C1234   1.408       .  A
C1233      C2590   1.400       .  A
C1234      C1235   1.400       .  A
C1234     Br1250   1.916       .  S
C1235      C1236   1.403       .  A
C1235      H1239   1.082       .  S
C1236      C1240   1.486       .  S
C1236      C2589   1.414       .  A
C1237      C2588   1.414   1_455  A
C1237      C1238   1.397       .  A
C1237     Br1249   1.919       .  S
C1238      C2585   1.400   1_455  A
C1238      H1241   1.084       .  S
C1240      C1242   1.403       .  A
C1240      C2598   1.411       .  A
C1242      C1243   1.397       .  A
C1242      H1247   1.083       .  S
C1243      C1244   1.409       .  A
C1243     Br1251   1.919       .  S
C1244      C1245   1.404       .  A
C1245      C2598   1.404       .  A
C1245      H2600   1.083       .  S
C1246      C2592   1.411       .  A
C1246      C2597   1.404       .  A
C1246     Br1252   1.918       .  S
H1248      C2597   1.083       .  S
C1253      C1254   1.408       .  A
C1254      C1255   1.400       .  A
C1254     Br1270   1.917       .  S
C1255      C1256   1.401       .  A
C1255      H1259   1.082       .  S
C1256      C1260   1.475       .  S
C1257      C1258   1.393   1_545  A
C1257     Br1269   1.919   1_545  S
C1258      H1261   1.081       .  S
C1260      C1266   1.406       .  A
C1262      C1263   1.399       .  A
C1262      H1267   1.083       .  S
C1263     Br1271   1.918       .  S
C1264      C1265   1.404       .  A
C1265      C1266   1.398       .  A
C1265      H1268   1.083       .  S
C1266     Br1272   1.919       .  S
C1273      C1274   1.405       .  A
C1273      C1278   1.405       .  A
C1274      C1275   1.394       .  A
C1274     Br1290   1.920       .  S
C1275      C1276   1.405       .  A
C1275      H1279   1.084       .  S
C1276      C1280   1.484       .  S
C1276      C1277   1.409       .  A
C1277      C1278   1.404       .  A
C1277     Br1289   1.916   1_565  S
C1278      H1281   1.083   1_565  S
C1280      C1282   1.404       .  A
C1280      C1286   1.409       .  A
C1282      C1283   1.401       .  A
C1282      H1287   1.083       .  S
C1283      C1284   1.410       .  A
C1283     Br1291   1.919       .  S
C1284      C1285   1.401       .  A
C1285      C1286   1.398       .  A
C1285      H1288   1.083       .  S
C1286     Br1292   1.915       .  S
C1293      C1294   1.404       .  A
C1293      C1298   1.403       .  A
C1294      C1295   1.395       .  A
C1294     Br1310   1.918       .  S
C1295      C1296   1.408       .  A
C1295      H1299   1.084       .  S
C1296      C1300   1.488       .  S
C1296      C1297   1.413       .  A
C1297      C1298   1.401       .  A
C1297     Br1309   1.920       .  S
C1298      H1301   1.083       .  S
C1300      C1302   1.408       .  A
C1300      C1306   1.415       .  A
C1302      C1303   1.398       .  A
C1302      H1307   1.084       .  S
C1303      C1304   1.405       .  A
C1303     Br1311   1.917       .  S
C1304      C1305   1.401       .  A
C1305      C1306   1.398       .  A
C1305      H1308   1.084       .  S
C1306     Br1312   1.917       .  S
C1313      C1314   1.408       .  A
C1313      C1318   1.403       .  A
C1314      C1315   1.400       .  A
C1314     Br1330   1.917       .  S
C1315      C1316   1.403       .  A
C1315      H1319   1.083       .  S
C1316      C1320   1.476       .  S
C1316      C1317   1.406       .  A
C1317      C1318   1.395       .  A
C1317     Br1329   1.918       .  S
C1318      H1321   1.084       .  S
C1320      C1322   1.402       .  A
C1320      C2678   1.412       .  A
C1322      C1323   1.400       .  A
C1322      H1327   1.083       .  S
C1323      C1324   1.408       .  A
C1323     Br1331   1.916       .  S
C1324      C2677   1.400       .  A
C1325      C2676   1.400       .  A
C1325      C1326   1.392       .  A
C1325      H1328   1.083       .  S
C1326      C2672   1.412       .  A
C1326     Br1332   1.921       .  S
C1333      C1338   1.403       .  A
C1334      C1335   1.396       .  A
C1334     Br1350   1.917       .  S
C1335      H1339   1.082       .  S
C1336      C1340   1.472       .  S
C1336      C1337   1.406       .  A
C1337      C1338   1.397       .  A
C1337     Br1349   1.918       .  S
C1338      H1341   1.084       .  S
C1340      C1342   1.401       .  A
C1342      C1343   1.396   1_565  A
C1342      H1347   1.084   1_565  S
C1343      C1344   1.410   1_545  A
C1343     Br1351   1.919       .  S
C1345      C1346   1.400       .  A
C1345      H1348   1.083       .  S
C1346     Br1352   1.917       .  S
In1353     O1355   2.232       .  S
In1353     O1356   2.277       .  S
In1353     O1364   2.213       .  S
In1353     O1358   2.268       .  S
In1353     O1360   2.274       .  S
In1353     O1361   2.263       .  S
In1353     O1362   2.232       .  S
In1353     O1365   2.228       .  S
C1354      O1360   1.260       .  A
C1354      O1362   1.260       .  A
C1354      C1628   1.486       .  S
O1355      C1363   1.261       .  A
O1356      C1363   1.260       .  A
C1357      O1364   1.259       .  A
C1357      O1358   1.261       .  A
C1357      C1429   1.477       .  S
C1359      O1361   1.261       .  A
C1359      O1365   1.258       .  A
C1359      C1504   1.479       .  S
C1363      C1695   1.485       .  S
N1366      C2047   1.357       .  A
N1366      H2074   1.042       .  S
N1367      C1374   1.350       .  A
N1367      C1375   1.354       .  A
N1368      C1373   1.348       .  A
N1368      C1372   1.347       .  A
N1368      H1399   1.040       .  S
N1369      C1376   1.346       .  A
N1369      C1377   1.353       .  A
C1370      C1386   1.423       .  A
C1371      N2042   1.360       .  A
C1371      C1387   1.427       .  A
C1371      C2055   1.388       .  A
C1372      C1380   1.386       .  A
C1372      C2065   1.401       .  A
C1373      C1381   1.386       .  A
C1374      C1386   1.420       .  A
C1374      C1382   1.390       .  A
C1375      C1389   1.407       .  A
C1375      C1383   1.380       .  A
C1376      C1384   1.389       .  A
C1376      C1387   1.414       .  A
C1377      C1385   1.379       .  A
C1377      C1388   1.407       .  A
C1378      C1379   1.380       .  A
C1378      H1390   1.080       .  S
C1379      C2047   1.385       .  A
C1379      H1391   1.082       .  S
C1380      C1381   1.370       .  A
C1380      H1392   1.082       .  S
C1381      H1393   1.080       .  S
C1382      C1383   1.368       .  A
C1382      H1394   1.078       .  S
C1383      H1395   1.083       .  S
C1384      C1385   1.378       .  A
C1384      H1396   1.082       .  S
C1385      H1397   1.081       .  S
C1386      C1666   1.487       .  S
C1387      C1659   1.491       .  S
C1388      C1989   1.486       .  S
C1389      C2009   1.480       .  S
C1389      C2048   1.405       .  A
H1398      N2042   1.038       .  S
C1400      C1969   1.485       .  S
C1400      C2077   1.415   1_545  A
C1400      C1405   1.405       .  A
C1401      C2020   1.479       .  S
C1401      C2076   1.414       .  A
C1401      C1402   1.402       .  A
C1402      C1403   1.401       .  A
C1402      H1407   1.084       .  S
C1403      C1949   1.477       .  S
C1403      C1404   1.410       .  A
C1404      C2605   1.477       .  S
C1404      C2081   1.401       .  A
C1405      C2080   1.406       .  A
C1405      H1406   1.084       .  S
N1408      C2089   1.353   1_445  A
N1409      C1416   1.347       .  A
N1409      C1417   1.350       .  A
N1410      C1415   1.349       .  A
N1410      C1414   1.347       .  A
N1410      H1441   1.042       .  S
N1411      C1418   1.345       .  A
N1411      C1419   1.351       .  A
C1412      C1428   1.418       .  A
C1413      N2084   1.355   1_655  A
C1413      C1429   1.418       .  A
C1413      C2097   1.386       .  A
C1414      C1422   1.386       .  A
C1414      C2107   1.405       .  A
C1415      C1423   1.385       .  A
C1416      C1428   1.411       .  A
C1416      C1424   1.387       .  A
C1417      C1431   1.404       .  A
C1417      C1425   1.379       .  A
C1418      C1426   1.390       .  A
C1418      C1429   1.409       .  A
C1419      C1427   1.379       .  A
C1419      C1430   1.403       .  A
C1420      C1421   1.381   1_445  A
C1420      H1432   1.082       .  S
C1421      C2089   1.388       .  A
C1421      H1433   1.082       .  S
C1422      C1423   1.374       .  A
C1422      H1434   1.082       .  S
C1423      H1435   1.080       .  S
C1424      C1425   1.377       .  A
C1424      H1436   1.082       .  S
C1425      H1437   1.079       .  S
C1426      C1427   1.376       .  A
C1426      H1438   1.082       .  S
C1427      H1439   1.079       .  S
C1428      C1595   1.487       .  S
C1430      C1920   1.486       .  S
C1431      C1940   1.481       .  S
C1431      C2090   1.404   1_545  A
C1442      C1880   1.487       .  S
C1442      C1447   1.403       .  A
C1443      C2000   1.482       .  S
C1443      C1444   1.402       .  A
C1444      C1445   1.402       .  A
C1444      H1449   1.084       .  S
C1445      C1889   1.485       .  S
C1445      C1446   1.414       .  A
C1447      H1448   1.084       .  S
N1450      C1455   1.348       .  A
N1450      C1454   1.352       .  A
N1450      H1482   1.040       .  S
N1451      C1458   1.352       .  A
N1451      C1459   1.346       .  A
N1452      C1457   1.355       .  A
N1452      C1456   1.358       .  A
N1452      H1483   1.041       .  S
N1453      C1460   1.355       .  A
N1453      C1461   1.353       .  A
C1454      C1462   1.388       .  A
C1454      C1470   1.412       .  A
C1455      C1471   1.408       .  A
C1455      C1463   1.388       .  A
C1456      C1464   1.387       .  A
C1456      C1473   1.423       .  A
C1457      C1472   1.422       .  A
C1457      C1465   1.387       .  A
C1458      C1470   1.404       .  A
C1458      C1466   1.379       .  A
C1459      C1473   1.410       .  A
C1459      C1467   1.388       .  A
C1460      C1468   1.382       .  A
C1460      C1471   1.411       .  A
C1461      C1469   1.388       .  A
C1461      C1472   1.420       .  A
C1462      C1463   1.373       .  A
C1462      H1474   1.082       .  S
C1463      H1475   1.082       .  S
C1464      C1465   1.384       .  A
C1464      H1476   1.082       .  S
C1465      H1477   1.082       .  S
C1466      C1467   1.374       .  A
C1466      H1478   1.079       .  S
C1467      H1479   1.082       .  S
C1468      C1469   1.371       .  A
C1468      H1480   1.083       .  S
C1469      H1481   1.077       .  S
C1470      C1980   1.487       .  S
C1471      C1869   1.481       .  S
C1472      C1668   1.493       .  S
C1473      C1653   1.487       .  S
N1484      C1489   1.355       .  A
N1484      C1488   1.352       .  A
N1484      H1516   1.041       .  S
N1485      C1492   1.348       .  A
N1485      C1493   1.353       .  A
N1486      C1491   1.349       .  A
N1486      C1490   1.350       .  A
N1486      H1517   1.041       .  S
N1487      C1494   1.349       .  A
N1487      C1495   1.351       .  A
C1488      C1496   1.388       .  A
C1488      C1504   1.417       .  A
C1489      C1505   1.416       .  A
C1489      C1497   1.387       .  A
C1490      C1498   1.387       .  A
C1490      C1507   1.410       .  A
C1491      C1506   1.409       .  A
C1491      C1499   1.388       .  A
C1492      C1504   1.413       .  A
C1492      C1500   1.389       .  A
C1493      C1507   1.405       .  A
C1493      C1501   1.378       .  A
C1494      C1502   1.387       .  A
C1494      C1505   1.412       .  A
C1495      C1503   1.379       .  A
C1495      C1506   1.405       .  A
C1496      C1497   1.382       .  A
C1496      H1508   1.082       .  S
C1497      H1509   1.082       .  S
C1498      C1499   1.374       .  A
C1498      H1510   1.082       .  S
C1499      H1511   1.082       .  S
C1500      C1501   1.376       .  A
C1500      H1512   1.082       .  S
C1501      H1513   1.080       .  S
C1502      C1503   1.374       .  A
C1502      H1514   1.082       .  S
C1503      H1515   1.078       .  S
C1505      C1600   1.486       .  S
C1506      C1900   1.482       .  S
C1507      C1960   1.487       .  S
C1518      C1849   1.482       .  S
C1518      C1523   1.398   1_554  A
C1519      C2516   1.485       .  S
C1519      C2196   1.403   1_554  A
C1520      C2195   1.399       .  A
C1520      H1525   1.084   1_554  S
C1521      C1800   1.497       .  S
C1521      C2198   1.430   1_455  A
C1522      C1809   1.489       .  S
C1522      C2197   1.428   1_655  A
C1522      C1523   1.404       .  A
C1523      H1524   1.084       .  S
N1526      C1531   1.347       .  A
N1526      C1530   1.345   1_545  A
N1526      H1558   1.041       .  S
N1527      C1534   1.350       .  A
N1527      C1535   1.342       .  A
N1528      C2209   1.356       .  A
N1528      C1532   1.362       .  A
N1528      H1559   1.037       .  S
N1529      C1536   1.355       .  A
N1529      C1537   1.349       .  A
C1530      C1538   1.382       .  A
C1530      C2222   1.400       .  A
C1531      C1547   1.407       .  A
C1531      C1539   1.390   1_545  A
C1532      C1540   1.391       .  A
C1532      C1549   1.435       .  A
C1533      N2204   1.357       .  A
C1533      C1548   1.428       .  A
C1533      C2217   1.386       .  A
C1534      C1546   1.405       .  A
C1534      C1542   1.382       .  A
C1535      C1549   1.416       .  A
C1535      C1543   1.391       .  A
C1536      C1544   1.378       .  A
C1536      C1547   1.411       .  A
C1537      C1545   1.391       .  A
C1537      C1548   1.422       .  A
C1538      C1539   1.372       .  A
C1538      H1550   1.083       .  S
C1539      H1551   1.078       .  S
C1540      C1541   1.381       .  A
C1540      H1552   1.078       .  S
C1541      C2209   1.385       .  A
C1541      H1553   1.081       .  S
C1542      C1543   1.380       .  A
C1542      H1554   1.082       .  S
C1543      H1555   1.082       .  S
C1544      C1545   1.372       .  A
C1544      H1556   1.080       .  S
C1545      H1557   1.077       .  S
C1546      C1820   1.485       .  S
C1546      C2206   1.401       .  A
C1547      C1780   1.493       .  S
C1548      C1655   1.489       .  S
C1549      C1672   1.502       .  S
N1560      C1565   1.346       .  A
N1560      C1564   1.346       .  A
N1560      H1592   1.042       .  S
N1561      C1568   1.353       .  A
N1561      C1569   1.346       .  A
N1562      C1566   1.357       .  A
N1563      C1570   1.352       .  A
N1563      C1571   1.346       .  A
C1564      C1572   1.387       .  A
C1565      C1581   1.406       .  A
C1565      C1573   1.388       .  A
C1566      C1574   1.389       .  A
C1566      C1583   1.424       .  A
C1567      C1582   1.421       .  A
C1568      C1580   1.410       .  A
C1568      C1576   1.382       .  A
C1569      C1583   1.411       .  A
C1569      C1577   1.387       .  A
C1570      C1578   1.383       .  A
C1570      C1581   1.406       .  A
C1571      C1579   1.390       .  A
C1571      C1582   1.411       .  A
C1572      C1573   1.378       .  A
C1572      H1584   1.082       .  S
C1573      H1585   1.082       .  S
C1574      C1575   1.385       .  A
C1574      H1586   1.081       .  S
C1575      H1587   1.082       .  S
C1576      C1577   1.379       .  A
C1576      H1588   1.081       .  S
C1577      H1589   1.082       .  S
C1578      C1579   1.376       .  A
C1578      H1590   1.082       .  S
C1579      H1591   1.082       .  S
C1580      C1789   1.491       .  S
C1581      C1749   1.478       .  S
C1582      C1663   1.481       .  S
C1583      C1650   1.492       .  S
In1594     O1596   2.253       .  S
In1594     O1597   2.291       .  S
In1594     O1605   2.254       .  S
In1594     O1599   2.283       .  S
In1594     O1601   2.267       .  S
In1594     O1602   2.275       .  S
In1594     O1603   2.240       .  S
In1594     O1606   2.230       .  S
C1595      O1601   1.260       .  A
C1595      O1603   1.260       .  A
O1596      C1604   1.261       .  A
O1597      C1604   1.259       .  A
C1598      O1605   1.262       .  A
C1598      O1599   1.258       .  A
C1598      C1696   1.496       .  S
C1600      O1602   1.261       .  A
C1600      O1606   1.259       .  A
C1604      C1627   1.498       .  S
N1607      C2288   1.355       .  A
N1607      C1611   1.356   1_565  A
N1607      H2315   1.042       .  S
N1608      C1615   1.350       .  A
N1608      C1616   1.354       .  A
N1609      C1614   1.348       .  A
N1609      C1613   1.346       .  A
N1609      H1640   1.041       .  S
N1610      C1617   1.346       .  A
N1610      C1618   1.351       .  A
C1611      C1619   1.387   1_545  A
C1611      C1627   1.422       .  A
C1612      N2283   1.357       .  A
C1612      C1628   1.424       .  A
C1612      C2296   1.387       .  A
C1613      C1621   1.389       .  A
C1613      C2306   1.406       .  A
C1614      C1629   1.405       .  A
C1614      C1622   1.386       .  A
C1615      C1627   1.414       .  A
C1615      C1623   1.384       .  A
C1616      C1630   1.408       .  A
C1616      C1624   1.382       .  A
C1617      C1625   1.389       .  A
C1617      C1628   1.410       .  A
C1618      C1626   1.379       .  A
C1618      C1629   1.402       .  A
C1619      C1620   1.386       .  A
C1619      H1631   1.082   1_565  S
C1620      C2288   1.388       .  A
C1620      H1632   1.082       .  S
C1621      C1622   1.374       .  A
C1621      H1633   1.082       .  S
C1622      H1634   1.082       .  S
C1623      C1624   1.373       .  A
C1623      H1635   1.078       .  S
C1624      H1636   1.081       .  S
C1625      C1626   1.374       .  A
C1625      H1637   1.082       .  S
C1626      H1638   1.080       .  S
C1629      C1740   1.479       .  S
C1630      C1829   1.480       .  S
C1630      C2289   1.408   1_545  A
H1639      N2283   1.041       .  S
C1641      C1769   1.476       .  S
C1641      C1642   1.412       .  A
C1641      C1646   1.399   1_556  A
C1642      C1760   1.477       .  S
C1642      C1643   1.402       .  A
C1643      C1644   1.401   1_556  A
C1643      H1648   1.084       .  S
C1644      C1729   1.479       .  S
C1644      C1645   1.414       .  A
C1645      C1720   1.475       .  S
C1645      C1646   1.398       .  A
C1646      H1647   1.084       .  S
In1649     O1651   2.239       .  S
In1649     O1652   2.283       .  S
In1649     O1660   2.231       .  S
In1649     O1654   2.283       .  S
In1649     O1656   2.283       .  S
In1649     O1657   2.270       .  S
In1649     O1658   2.244       .  S
In1649     O1661   2.242       .  S
C1650      O1656   1.259       .  A
C1650      O1658   1.258       .  A
O1651      C1659   1.260       .  A
O1652      C1659   1.261       .  A
C1653      O1660   1.261       .  A
C1653      O1654   1.261       .  A
C1655      O1657   1.260       .  A
C1655      O1661   1.262       .  A
In1662     O1664   2.221       .  S
In1662     O1665   2.274       .  S
In1662     O1673   2.243       .  S
In1662     O1667   2.272       .  S
In1662     O1669   2.281       .  S
In1662     O1670   2.288       .  S
In1662     O1671   2.225       .  S
In1662     O1674   2.237       .  S
C1663      O1669   1.261       .  A
C1663      O1671   1.258       .  A
O1664      C1672   1.263       .  A
O1665      C1672   1.265       .  A
C1666      O1673   1.258       .  A
C1666      O1667   1.255       .  A
C1668      O1670   1.263       .  A
C1668      O1674   1.257       .  A
N1675      C1679   1.357   1_455  A
N1676      C1683   1.347       .  A
N1676      C1684   1.352       .  A
N1677      C1682   1.349       .  A
N1677      C1681   1.349       .  A
N1677      H1708   1.040       .  S
N1678      C1685   1.350       .  A
N1678      C1686   1.354       .  A
C1679      C1687   1.387   1_655  A
C1679      C1695   1.424       .  A
C1680      C1696   1.424       .  A
C1681      C1689   1.388       .  A
C1682      C1697   1.409       .  A
C1682      C1690   1.388       .  A
C1683      C1695   1.411       .  A
C1683      C1691   1.389       .  A
C1684      C1698   1.404       .  A
C1684      C1692   1.379       .  A
C1685      C1693   1.385       .  A
C1685      C1696   1.415       .  A
C1686      C1694   1.381       .  A
C1686      C1697   1.406       .  A
C1687      C1688   1.386       .  A
C1687      H1699   1.082   1_455  S
C1688      H1700   1.082       .  S
C1689      C1690   1.375       .  A
C1689      H1701   1.083       .  S
C1690      H1702   1.082       .  S
C1691      C1692   1.373       .  A
C1691      H1703   1.082       .  S
C1692      H1704   1.079       .  S
C1693      C1694   1.372       .  A
C1693      H1705   1.078       .  S
C1694      H1706   1.081       .  S
C1697      C1709   1.480       .  S
C1698      C1860   1.484       .  S
C1709      C1710   1.408       .  A
C1709      C1714   1.403       .  A
C1710      C1711   1.396       .  A
C1710     Br1726   1.918       .  S
C1711      C1712   1.401       .  A
C1711      H1715   1.083       .  S
C1712      C1716   1.470       .  S
C1712      C1713   1.405       .  A
C1713      C1714   1.398       .  A
C1713     Br1725   1.917       .  S
C1714      H1717   1.083       .  S
C1716      C1718   1.400       .  A
C1716      C1722   1.407       .  A
C1718      C1719   1.399       .  A
C1718      H1723   1.083       .  S
C1719      C1720   1.408       .  A
C1719     Br1727   1.915       .  S
C1720      C1721   1.401       .  A
C1721      C1722   1.395       .  A
C1721      H1724   1.084       .  S
C1722     Br1728   1.921       .  S
C1729      C1730   1.408       .  A
C1729      C1734   1.400       .  A
C1730      C1731   1.401       .  A
C1730     Br1746   1.917       .  S
C1731      C1732   1.403       .  A
C1731      H1735   1.081       .  S
C1732      C1736   1.479       .  S
C1732      C1733   1.411       .  A
C1733      C1734   1.394       .  A
C1733     Br1745   1.922       .  S
C1734      H1737   1.083       .  S
C1736      C1738   1.403       .  A
C1736      C1742   1.410       .  A
C1738      C1739   1.396       .  A
C1738      H1743   1.082       .  S
C1739      C1740   1.405       .  A
C1739     Br1747   1.919       .  S
C1740      C1741   1.401       .  A
C1741      C1742   1.400       .  A
C1741      H1744   1.083       .  S
C1742     Br1748   1.919       .  S
C1749      C1750   1.404       .  A
C1749      C1754   1.400       .  A
C1750      C1751   1.401       .  A
C1750     Br1766   1.915       .  S
C1751      C1752   1.407       .  A
C1751      H1755   1.083       .  S
C1752      C1756   1.482       .  S
C1752      C1753   1.410       .  A
C1753      C1754   1.394       .  A
C1753     Br1765   1.919       .  S
C1754      H1757   1.084       .  S
C1756      C1758   1.406       .  A
C1756      C1762   1.409       .  A
C1758      C1759   1.397       .  A
C1758      H1763   1.084       .  S
C1759      C1760   1.404       .  A
C1759     Br1767   1.918       .  S
C1760      C1761   1.403       .  A
C1761      C1762   1.399       .  A
C1761      H1764   1.083       .  S
C1762     Br1768   1.919       .  S
C1769      C1770   1.408       .  A
C1769      C1774   1.400       .  A
C1770      C1771   1.399       .  A
C1770     Br1786   1.918       .  S
C1771      C1772   1.402       .  A
C1771      H1775   1.083       .  S
C1772      C1776   1.474       .  S
C1772      C1773   1.409       .  A
C1773      C1774   1.396       .  A
C1773     Br1785   1.921       .  S
C1774      H1777   1.083       .  S
C1776      C1778   1.398       .  A
C1776      C1782   1.408       .  A
C1778      C1779   1.395       .  A
C1778      H1783   1.084       .  S
C1779      C1780   1.415       .  A
C1779     Br1787   1.919       .  S
C1780      C1781   1.404       .  A
C1781      C1782   1.400       .  A
C1781      H1784   1.081       .  S
C1782     Br1788   1.918       .  S
C1789      C1794   1.403       .  A
C1790      C1791   1.391       .  A
C1790     Br1806   1.924   1_455  S
C1791      H1795   1.081       .  S
C1792      C1796   1.502       .  S
C1792      C1793   1.422       .  A
C1793      C1794   1.406       .  A
C1793     Br1805   1.919       .  S
C1794      H1797   1.083       .  S
C1796      C1802   1.419       .  A
C1798      C1799   1.399       .  A
C1798      H1803   1.079       .  S
C1799      C1800   1.409       .  A
C1799     Br2483   1.918   1_545  S
C1801      C1802   1.399       .  A
C1801      H1804   1.083       .  S
C1802     Br1808   1.922       .  S
Br1807     C2475   1.917       .  S
C1809      C1810   1.413       .  A
C1809      C2490   1.403       .  A
C1810      C1811   1.400       .  A
C1810     Br1826   1.921       .  S
C1811      C1812   1.406       .  A
C1811      H1815   1.083       .  S
C1812      C1816   1.486       .  S
C1812      C2489   1.413       .  A
C1813      C2488   1.411       .  A
C1813      C1814   1.393       .  A
C1813     Br1825   1.920       .  S
C1814      C2485   1.404       .  A
C1814      H1817   1.083       .  S
C1816      C2494   1.401       .  A
C1816      C1822   1.417       .  A
C1818      C2492   1.400       .  A
C1818      C1819   1.388       .  A
C1818      H1823   1.083       .  S
C1819      C2496   1.411       .  A
C1819     Br1827   1.923       .  S
C1820      C2495   1.412       .  A
C1820      C1821   1.402       .  A
C1821      C1822   1.402       .  A
C1821      H1824   1.083       .  S
C1822     Br1828   1.920       .  S
C1829      C1830   1.410       .  A
C1829      C2510   1.401   1_545  A
C1830      C1831   1.399       .  A
C1830     Br1846   1.918       .  S
C1831      C1832   1.400       .  A
C1831      H1835   1.082       .  S
C1832      C1836   1.473       .  S
C1832      C2509   1.405   1_545  A
C1833      C2508   1.410       .  A
C1833      C1834   1.397       .  A
C1833     Br1845   1.914       .  S
C1834      C2505   1.401       .  A
C1834      H1837   1.084       .  S
C1836      C2514   1.402       .  A
C1836      C1842   1.406       .  A
C1838      C2512   1.404       .  A
C1838      C1839   1.399       .  A
C1838      H1843   1.084       .  S
C1839      C2516   1.409       .  A
C1839     Br1847   1.920       .  S
C1840      C2195   1.484       .  S
C1840      C2515   1.411   1_545  A
C1840      C1841   1.405       .  A
C1841      C1842   1.395       .  A
C1841      H1844   1.083       .  S
C1842     Br1848   1.919       .  S
C1849      C1854   1.404       .  A
C1850      C1851   1.391       .  A
C1850     Br1866   1.915       .  S
C1851      H1855   1.084       .  S
C1852      C1856   1.484       .  S
C1852      C1853   1.410       .  A
C1853      C1854   1.402       .  A
C1853     Br1865   1.910       .  S
C1854      H1857   1.083       .  S
C1856      C1858   1.405       .  A
C1856      C1862   1.411       .  A
C1858      C1859   1.403       .  A
C1859      C1860   1.409       .  A
C1860      C1861   1.400       .  A
C1861      C1862   1.394       .  A
C1861      H1864   1.084       .  S
C1862     Br1868   1.919       .  S
C1869      C1870   1.407       .  A
C1869      C1874   1.400       .  A
C1870      C1871   1.400       .  A
C1870     Br1886   1.918       .  S
C1871      C1872   1.407       .  A
C1871      H1875   1.084       .  S
C1872      C1876   1.482       .  S
C1872      C1873   1.411       .  A
C1873      C1874   1.395       .  A
C1873     Br1885   1.919       .  S
C1874      H1877   1.084       .  S
C1876      C1878   1.404       .  A
C1876      C1882   1.409       .  A
C1878      C1879   1.397       .  A
C1878      H1883   1.084       .  S
C1879      C1880   1.409       .  A
C1879     Br1887   1.918       .  S
C1880      C1881   1.406       .  A
C1881      C1882   1.400       .  A
C1881      H1884   1.083   1_655  S
C1882     Br1888   1.919       .  S
C1889      C1890   1.409       .  A
C1889      C1894   1.406       .  A
C1890      C1891   1.397       .  A
C1890     Br1906   1.917       .  S
C1891      C1892   1.401       .  A
C1891      H1895   1.084       .  S
C1892      C1896   1.478       .  S
C1892      C1893   1.407       .  A
C1893      C1894   1.402       .  A
C1893     Br1905   1.918       .  S
C1894      H1897   1.083       .  S
C1896      C1898   1.404       .  A
C1896      C1902   1.408       .  A
C1898      C1899   1.401       .  A
C1898      H1903   1.082       .  S
C1899      C1900   1.407       .  A
C1899     Br1907   1.917       .  S
C1900      C1901   1.401       .  A
C1901      C1902   1.396       .  A
C1901      H1904   1.084       .  S
C1902     Br1908   1.915       .  S
C1909      C1910   1.408       .  A
C1910      C1911   1.402       .  A
C1910     Br1926   1.917       .  S
C1911      C1912   1.405       .  A
C1911      H1915   1.082       .  S
C1912      C1916   1.485       .  S
C1913      C1914   1.393       .  A
C1913     Br1925   1.918       .  S
C1914      H1917   1.084       .  S
C1916      C1918   1.403       .  A
C1918      C1919   1.396       .  A
C1918      H1923   1.084       .  S
C1919      C1920   1.407       .  A
C1919     Br1927   1.918       .  S
C1920      C1921   1.404       .  A
C1922     Br1928   1.919       .  S
C1929      C2080   1.481       .  S
C1929      C1930   1.410       .  A
C1929      C2610   1.400   1_545  A
C1930      C1931   1.403       .  A
C1930     Br1946   1.917       .  S
C1931      C1932   1.402       .  A
C1931      H1935   1.082       .  S
C1932      C1936   1.474       .  S
C1932      C2609   1.407       .  A
C1933      C2608   1.409       .  A
C1933      C1934   1.396       .  A
C1933     Br1945   1.920       .  S
C1934      C2605   1.400       .  A
C1934      H1937   1.083       .  S
C1936      C2614   1.402       .  A
C1936      C1942   1.407       .  A
C1938      C2612   1.402       .  A
C1938      C1939   1.399       .  A
C1938      H1943   1.084       .  S
C1939      C2616   1.409       .  A
C1939     Br1947   1.918       .  S
C1940      C2615   1.408       .  A
C1940      C1941   1.403       .  A
C1941      C1942   1.396       .  A
C1941      H1944   1.084       .  S
C1942     Br1948   1.918       .  S
C1949      C1950   1.404       .  A
C1949      C1954   1.403       .  A
C1950      C1951   1.394       .  A
C1950     Br1966   1.919       .  S
C1951      C1952   1.407       .  A
C1951      H1955   1.084       .  S
C1952      C1956   1.486       .  S
C1952      C1953   1.410       .  A
C1953      C1954   1.402       .  A
C1953     Br1965   1.915       .  S
C1954      H1957   1.083       .  S
C1956      C1958   1.404       .  A
C1956      C1962   1.410       .  A
C1958      C1959   1.402       .  A
C1958      H1963   1.083       .  S
C1959      C1960   1.409       .  A
C1959     Br1967   1.917       .  S
C1960      C1961   1.402       .  A
C1961      C1962   1.399       .  A
C1961      H1964   1.083       .  S
C1962     Br1968   1.917       .  S
C1969      C1970   1.404       .  A
C1969      C1974   1.407       .  A
C1970      C1971   1.395       .  A
C1970     Br1986   1.917       .  S
C1971      C1972   1.405       .  A
C1971      H1975   1.084       .  S
C1972      C1976   1.486       .  S
C1972      C1973   1.411       .  A
C1973      C1974   1.406       .  A
C1973     Br1985   1.918   1_545  S
C1974      H1977   1.083   1_545  S
C1976      C1978   1.406       .  A
C1976      C1982   1.411       .  A
C1978      C1979   1.399       .  A
C1978      H1983   1.084       .  S
C1979      C1980   1.406       .  A
C1979     Br1987   1.915       .  S
C1980      C1981   1.403       .  A
C1981      C1982   1.400       .  A
C1981      H1984   1.084       .  S
C1982     Br1988   1.913       .  S
C1989      C1990   1.409       .  A
C1989      C1994   1.406       .  A
C1990      C1991   1.401       .  A
C1990     Br2006   1.917       .  S
C1991      C1992   1.402       .  A
C1991      H1995   1.083       .  S
C1992      C1996   1.478       .  S
C1992      C1993   1.406       .  A
C1993      C1994   1.400       .  A
C1993     Br2005   1.919       .  S
C1994      H1997   1.083       .  S
C1996      C1998   1.402       .  A
C1998      C1999   1.402       .  A
C1998      H2003   1.083       .  S
C1999      C2000   1.411       .  A
C1999     Br2007   1.916       .  S
C2001      C2002   1.392   1_655  A
C2001      H2004   1.084       .  S
C2002     Br2008   1.918   1_455  S
C2009      C2686   1.405       .  A
C2009      C2014   1.403       .  A
C2010      C2685   1.404   1_545  A
C2010      C2011   1.395       .  A
C2010     Br2026   1.918       .  S
C2011      C2688   1.403   1_545  A
C2011      H2015   1.081       .  S
C2012      C2016   1.473       .  S
C2012      C2687   1.402       .  A
C2012      C2013   1.407       .  A
C2013      C2014   1.398       .  A
C2013     Br2025   1.917       .  S
C2014      H2017   1.084       .  S
C2016      C2018   1.401       .  A
C2016      C2698   1.407       .  A
C2018      C2019   1.396       .  A
C2018      H2023   1.084       .  S
C2019      C2020   1.408       .  A
C2019     Br2027   1.918       .  S
C2020      C2697   1.404       .  A
C2021      C2696   1.404       .  A
C2021      C2022   1.398       .  A
C2021      H2024   1.083       .  S
C2022      C2692   1.406       .  A
C2022     Br2028   1.917       .  S
In2029     O2031   2.226       .  S
In2029     O2032   2.272       .  S
In2029     O2040   2.214       .  S
In2029     O2034   2.262       .  S
In2029     O2036   2.272       .  S
In2029     O2037   2.262       .  S
In2029     O2038   2.224       .  S
In2029     O2041   2.218       .  S
C2030      O2036   1.260       .  A
C2030      O2038   1.260       .  A
C2030      C2304   1.483       .  S
O2031      C2039   1.261       .  A
O2032      C2039   1.260       .  A
C2033      O2040   1.258       .  A
C2033      O2034   1.261       .  A
C2033      C2105   1.475       .  S
C2035      O2037   1.261       .  A
C2035      O2041   1.260       .  A
C2035      C2180   1.478       .  S
C2039      C2371   1.483       .  S
N2043      C2050   1.350       .  A
N2043      C2051   1.354       .  A
N2044      C2049   1.347       .  A
N2044      C2048   1.348       .  A
N2044      H2075   1.045       .  S
N2045      C2052   1.344       .  A
N2045      C2053   1.349       .  A
C2046      C2062   1.425       .  A
C2047      C2063   1.420       .  A
C2048      C2056   1.387       .  A
C2049      C2057   1.387       .  A
C2050      C2062   1.420       .  A
C2050      C2058   1.390       .  A
C2051      C2065   1.404   1_565  A
C2051      C2059   1.379       .  A
C2052      C2060   1.388       .  A
C2052      C2063   1.407       .  A
C2053      C2061   1.380       .  A
C2053      C2064   1.402       .  A
C2054      C2055   1.383       .  A
C2054      H2066   1.082   1_545  S
C2055      H2067   1.081       .  S
C2056      C2057   1.371       .  A
C2056      H2068   1.082       .  S
C2057      H2069   1.080       .  S
C2058      C2059   1.367       .  A
C2058      H2070   1.073       .  S
C2059      H2071   1.083       .  S
C2060      C2061   1.377       .  A
C2060      H2072   1.082       .  S
C2061      H2073   1.081       .  S
C2062      C2342   1.493       .  S
C2063      C2335   1.482       .  S
C2064      C2665   1.479       .  S
C2065      C2685   1.477   1_545  S
C2076      C2645   1.478       .  S
C2076      C2081   1.401       .  A
C2077      C2696   1.480       .  S
C2077      C2078   1.402       .  A
C2078      C2079   1.400       .  A
C2078      H2083   1.084       .  S
C2079      C2625   1.480       .  S
C2079      C2080   1.412   1_565  A
C2081      H2082   1.084       .  S
N2085      C2092   1.349       .  A
N2085      C2093   1.353       .  A
N2086      C2091   1.348       .  A
N2086      C2090   1.345       .  A
N2086      H2117   1.042   1_565  S
N2087      C2094   1.345       .  A
N2087      C2095   1.352       .  A
C2088      C2104   1.422       .  A
C2089      C2105   1.418       .  A
C2090      C2098   1.386       .  A
C2091      C2099   1.386       .  A
C2092      C2104   1.415       .  A
C2092      C2100   1.389       .  A
C2093      C2107   1.406       .  A
C2093      C2101   1.379       .  A
C2094      C2102   1.390       .  A
C2094      C2105   1.411       .  A
C2095      C2103   1.379       .  A
C2095      C2106   1.404       .  A
C2096      C2097   1.383   1_455  A
C2096      H2108   1.082       .  S
C2097      H2109   1.082       .  S
C2098      C2099   1.374       .  A
C2098      H2110   1.080       .  S
C2099      H2111   1.080       .  S
C2100      C2101   1.376       .  A
C2100      H2112   1.082       .  S
C2101      H2113   1.079       .  S
C2102      C2103   1.378       .  A
C2102      H2114   1.083       .  S
C2103      H2115   1.080       .  S
C2104      C2271   1.492       .  S
C2106      C2596   1.487       .  S
C2107      C2616   1.484       .  S
C2118      C2556   1.484       .  S
C2118      C2123   1.401       .  A
C2119      C2676   1.478       .  S
C2119      C2120   1.402       .  A
C2120      C2121   1.404       .  A
C2120      H2125   1.084       .  S
C2121      C2565   1.487       .  S
C2121      C2122   1.415       .  A
C2123      H2124   1.084       .  S
N2126      C2131   1.349       .  A
N2126      C2130   1.350       .  A
N2126      H2158   1.039       .  S
N2127      C2134   1.351       .  A
N2127      C2135   1.348       .  A
N2128      C2133   1.355       .  A
N2128      C2132   1.360       .  A
N2128      H2159   1.039       .  S
N2129      C2136   1.357       .  A
N2129      C2137   1.354       .  A
C2130      C2138   1.389       .  A
C2130      C2146   1.411       .  A
C2131      C2147   1.408       .  A
C2131      C2139   1.387       .  A
C2132      C2140   1.386       .  A
C2132      C2149   1.423       .  A
C2133      C2148   1.425       .  A
C2133      C2141   1.388       .  A
C2134      C2146   1.405       .  A
C2134      C2142   1.379       .  A
C2135      C2149   1.411       .  A
C2135      C2143   1.388       .  A
C2136      C2144   1.379       .  A
C2136      C2147   1.412       .  A
C2137      C2145   1.389       .  A
C2137      C2148   1.425       .  A
C2138      C2139   1.373       .  A
C2138      H2150   1.082       .  S
C2139      H2151   1.083       .  S
C2140      C2141   1.382       .  A
C2140      H2152   1.081       .  S
C2141      H2153   1.082       .  S
C2142      C2143   1.374       .  A
C2142      H2154   1.079       .  S
C2143      H2155   1.082       .  S
C2144      C2145   1.368       .  A
C2144      H2156   1.083       .  S
C2145      H2157   1.073       .  S
C2146      C2656   1.483       .  S
C2147      C2545   1.487       .  S
C2148      C2344   1.496       .  S
C2149      C2329   1.494       .  S
N2160      C2165   1.354       .  A
N2160      C2164   1.354       .  A
N2160      H2192   1.041       .  S
N2161      C2168   1.347       .  A
N2161      C2169   1.351       .  A
N2162      C2167   1.350       .  A
N2162      C2166   1.351       .  A
N2162      H2193   1.041       .  S
N2163      C2170   1.350       .  A
N2163      C2171   1.353       .  A
C2164      C2172   1.387       .  A
C2164      C2180   1.417       .  A
C2165      C2181   1.419       .  A
C2165      C2173   1.388       .  A
C2166      C2174   1.388       .  A
C2166      C2183   1.410       .  A
C2167      C2182   1.410       .  A
C2167      C2175   1.388       .  A
C2168      C2180   1.410       .  A
C2168      C2176   1.389       .  A
C2169      C2183   1.402       .  A
C2169      C2177   1.378       .  A
C2170      C2178   1.388       .  A
C2170      C2181   1.415       .  A
C2171      C2179   1.380       .  A
C2171      C2182   1.407       .  A
C2172      C2173   1.381       .  A
C2172      H2184   1.082       .  S
C2173      H2185   1.082       .  S
C2174      C2175   1.372       .  A
C2174      H2186   1.082       .  S
C2175      H2187   1.082       .  S
C2176      C2177   1.373       .  A
C2176      H2188   1.082       .  S
C2177      H2189   1.079       .  S
C2178      C2179   1.373       .  A
C2178      H2190   1.082       .  S
C2179      H2191   1.079       .  S
C2181      C2276   1.487       .  S
C2182      C2576   1.484       .  S
C2183      C2636   1.484       .  S
C2194      C2525   1.483       .  S
C2194      C2199   1.400       .  A
C2196      H2201   1.084       .  S
C2197      C2476   1.498       .  S
C2198      C2485   1.493       .  S
C2198      C2199   1.407   1_546  A
C2199      H2200   1.083       .  S
N2202      C2207   1.346       .  A
N2202      C2206   1.345       .  A
N2202      H2234   1.042       .  S
N2203      C2210   1.349       .  A
N2203      C2211   1.344       .  A
N2204      C2208   1.363   1_545  A
N2204      H2235   1.036       .  S
N2205      C2212   1.356       .  A
N2205      C2213   1.350       .  A
C2206      C2214   1.383       .  A
C2207      C2223   1.406       .  A
C2207      C2215   1.391       .  A
C2208      C2216   1.390       .  A
C2208      C2225   1.436       .  A
C2209      C2224   1.426       .  A
C2210      C2222   1.403       .  A
C2210      C2218   1.381       .  A
C2211      C2225   1.414       .  A
C2211      C2219   1.391       .  A
C2212      C2220   1.380       .  A
C2212      C2223   1.413       .  A
C2213      C2221   1.391       .  A
C2213      C2224   1.422       .  A
C2214      C2215   1.371       .  A
C2214      H2226   1.083       .  S
C2215      H2227   1.079       .  S
C2216      C2217   1.382   1_565  A
C2216      H2228   1.080       .  S
C2217      H2229   1.081       .  S
C2218      C2219   1.379       .  A
C2218      H2230   1.082       .  S
C2219      H2231   1.081       .  S
C2220      C2221   1.374       .  A
C2220      H2232   1.081       .  S
C2221      H2233   1.079       .  S
C2222      C2496   1.481   1_565  S
C2223      C2456   1.491       .  S
C2224      C2331   1.490       .  S
C2225      C2348   1.503       .  S
N2236      C2241   1.348       .  A
N2236      C2240   1.349       .  A
N2236      H2268   1.042       .  S
N2237      C2244   1.353       .  A
N2237      C2245   1.346       .  A
N2238      C2242   1.360       .  A
N2239      C2246   1.354       .  A
N2239      C2247   1.348       .  A
C2240      C2248   1.386       .  A
C2241      C2257   1.408       .  A
C2241      C2249   1.388       .  A
C2242      C2250   1.387       .  A
C2242      C2259   1.428       .  A
C2243      C2258   1.429       .  A
C2244      C2256   1.411       .  A
C2244      C2252   1.383       .  A
C2245      C2259   1.412       .  A
C2245      C2253   1.388       .  A
C2246      C2254   1.382       .  A
C2246      C2257   1.409       .  A
C2247      C2255   1.391       .  A
C2247      C2258   1.416       .  A
C2248      C2249   1.375       .  A
C2248      H2260   1.082       .  S
C2249      H2261   1.081       .  S
C2250      C2251   1.385       .  A
C2250      H2262   1.082       .  S
C2251      H2263   1.082       .  S
C2252      C2253   1.378       .  A
C2252      H2264   1.081       .  S
C2253      H2265   1.082       .  S
C2254      C2255   1.376       .  A
C2254      H2266   1.082       .  S
C2255      H2267   1.082       .  S
C2256      C2465   1.495       .  S
C2257      C2425   1.485       .  S
C2258      C2339   1.493       .  S
C2259      C2326   1.494       .  S
In2270     O2272   2.258       .  S
In2270     O2273   2.287       .  S
In2270     O2281   2.249       .  S
In2270     O2275   2.291       .  S
In2270     O2277   2.275       .  S
In2270     O2278   2.267       .  S
In2270     O2279   2.240       .  S
In2270     O2282   2.237       .  S
C2271      O2277   1.260       .  A
C2271      O2279   1.260       .  A
O2272      C2280   1.261       .  A
O2273      C2280   1.258       .  A
C2274      O2281   1.261       .  A
C2274      O2275   1.258       .  A
C2274      C2372   1.495       .  S
C2276      O2278   1.261       .  A
C2276      O2282   1.261       .  A
C2280      C2303   1.500       .  S
N2283      C2287   1.357       .  A
N2284      C2291   1.349       .  A
N2284      C2292   1.355       .  A
N2285      C2290   1.349       .  A
N2285      C2289   1.347       .  A
N2285      H2316   1.041       .  S
N2286      C2293   1.346       .  A
N2286      C2294   1.351       .  A
C2287      C2295   1.388       .  A
C2287      C2303   1.425       .  A
C2288      C2304   1.422       .  A
C2289      C2297   1.390       .  A
C2290      C2305   1.406       .  A
C2290      C2298   1.384       .  A
C2291      C2303   1.416       .  A
C2291      C2299   1.384       .  A
C2292      C2306   1.407       .  A
C2292      C2300   1.381       .  A
C2293      C2301   1.389       .  A
C2293      C2304   1.409       .  A
C2294      C2302   1.378       .  A
C2294      C2305   1.403       .  A
C2295      C2296   1.385       .  A
C2295      H2307   1.082       .  S
C2296      H2308   1.082       .  S
C2297      C2298   1.372       .  A
C2297      H2309   1.081       .  S
C2298      H2310   1.081       .  S
C2299      C2300   1.375       .  A
C2299      H2311   1.076       .  S
C2300      H2312   1.082       .  S
C2301      C2302   1.375       .  A
C2301      H2313   1.082       .  S
C2302      H2314   1.078       .  S
C2305      C2416   1.484       .  S
C2306      C2505   1.480       .  S
C2317      C2445   1.480       .  S
C2317      C2318   1.416       .  A
C2317      C2322   1.401   1_556  A
C2318      C2436   1.485       .  S
C2318      C2319   1.406   1_556  A
C2319      C2320   1.403       .  A
C2319      H2324   1.084       .  S
C2320      C2405   1.485       .  S
C2320      C2321   1.415       .  A
C2321      C2396   1.478       .  S
C2321      C2322   1.399       .  A
C2322      H2323   1.084       .  S
In2325     O2327   2.232       .  S
In2325     O2328   2.269       .  S
In2325     O2336   2.233       .  S
In2325     O2330   2.291       .  S
In2325     O2332   2.297       .  S
In2325     O2333   2.268       .  S
In2325     O2334   2.244       .  S
In2325     O2337   2.252       .  S
C2326      O2332   1.260       .  A
C2326      O2334   1.258       .  A
O2327      C2335   1.260       .  A
O2328      C2335   1.260       .  A
C2329      O2336   1.259       .  A
C2329      O2330   1.262       .  A
C2331      O2333   1.258       .  A
C2331      O2337   1.262       .  A
In2338     O2340   2.246       .  S
In2338     O2341   2.272       .  S
In2338     O2349   2.274       .  S
In2338     O2343   2.241       .  S
In2338     O2345   2.273       .  S
In2338     O2346   2.276       .  S
In2338     O2347   2.241       .  S
In2338     O2350   2.252       .  S
C2339      O2345   1.260       .  A
C2339      O2347   1.263       .  A
O2340      C2348   1.261       .  A
O2341      C2348   1.260       .  A
C2342      O2349   1.260       .  A
C2342      O2343   1.259       .  A
C2344      O2346   1.260       .  A
C2344      O2350   1.259       .  A
N2351      C2355   1.355   1_455  A
N2352      C2359   1.347       .  A
N2352      C2360   1.352       .  A
N2353      C2358   1.347       .  A
N2353      C2357   1.349       .  A
N2353      H2384   1.039       .  S
N2354      C2361   1.351       .  A
N2354      C2362   1.354       .  A
C2355      C2363   1.389   1_655  A
C2355      C2371   1.423       .  A
C2356      C2372   1.420       .  A
C2357      C2365   1.386       .  A
C2358      C2373   1.408       .  A
C2358      C2366   1.388       .  A
C2359      C2371   1.411       .  A
C2359      C2367   1.389       .  A
C2360      C2374   1.405       .  A
C2360      C2368   1.378       .  A
C2361      C2369   1.382       .  A
C2361      C2372   1.412       .  A
C2362      C2370   1.382       .  A
C2362      C2373   1.406       .  A
C2363      C2364   1.387       .  A
C2363      H2375   1.082   1_455  S
C2364      H2376   1.082       .  S
C2365      C2366   1.376       .  A
C2365      H2377   1.081       .  S
C2366      H2378   1.082       .  S
C2367      C2368   1.372       .  A
C2367      H2379   1.082       .  S
C2368      H2380   1.078       .  S
C2369      C2370   1.368       .  A
C2369      H2381   1.077       .  S
C2370      H2382   1.082       .  S
C2373      C2385   1.476       .  S
C2374      C2536   1.485       .  S
C2385      C2386   1.405       .  A
C2385      C2390   1.402       .  A
C2386      C2387   1.396       .  A
C2386     Br2402   1.917       .  S
C2387      C2388   1.402       .  A
C2387      H2391   1.081       .  S
C2388      C2392   1.470       .  S
C2388      C2389   1.406       .  A
C2389      C2390   1.395       .  A
C2389     Br2401   1.917       .  S
C2390      H2393   1.084       .  S
C2392      C2394   1.401       .  A
C2392      C2398   1.407       .  A
C2394      C2395   1.399       .  A
C2394      H2399   1.083       .  S
C2395      C2396   1.408       .  A
C2395     Br2403   1.914       .  S
C2396      C2397   1.402       .  A
C2397      C2398   1.395       .  A
C2397      H2400   1.084       .  S
C2398     Br2404   1.921       .  S
C2405      C2406   1.410       .  A
C2405      C2410   1.401       .  A
C2406      C2407   1.404       .  A
C2406     Br2422   1.917       .  S
C2407      C2408   1.403       .  A
C2407      H2411   1.082       .  S
C2408      C2412   1.480       .  S
C2408      C2409   1.410       .  A
C2409      C2410   1.394       .  A
C2409     Br2421   1.920       .  S
C2410      H2413   1.083       .  S
C2412      C2414   1.402       .  A
C2412      C2418   1.410       .  A
C2414      C2415   1.396       .  A
C2414      H2419   1.084       .  S
C2415      C2416   1.407       .  A
C2415     Br2423   1.916       .  S
C2416      C2417   1.404       .  A
C2417      C2418   1.403       .  A
C2417      H2420   1.083       .  S
C2418     Br2424   1.918       .  S
C2425      C2426   1.406       .  A
C2425      C2430   1.403       .  A
C2426      C2427   1.401       .  A
C2426     Br2442   1.915       .  S
C2427      C2428   1.406       .  A
C2427      H2431   1.083       .  S
C2428      C2432   1.486       .  S
C2428      C2429   1.411       .  A
C2429      C2430   1.400       .  A
C2429     Br2441   1.919       .  S
C2430      H2433   1.084       .  S
C2432      C2434   1.406       .  A
C2432      C2438   1.409       .  A
C2434      C2435   1.399       .  A
C2434      H2439   1.084       .  S
C2435      C2436   1.407       .  A
C2435     Br2443   1.918       .  S
C2436      C2437   1.405       .  A
C2437      C2438   1.401       .  A
C2437      H2440   1.082       .  S
C2438     Br2444   1.918       .  S
C2445      C2446   1.408       .  A
C2445      C2450   1.403       .  A
C2446      C2447   1.398       .  A
C2446     Br2462   1.918       .  S
C2447      C2448   1.399       .  A
C2447      H2451   1.081       .  S
C2448      C2452   1.475       .  S
C2448      C2449   1.409       .  A
C2449      C2450   1.401       .  A
C2449     Br2461   1.920       .  S
C2450      H2453   1.083       .  S
C2452      C2454   1.399       .  A
C2452      C2458   1.406       .  A
C2454      C2455   1.396       .  A
C2454      H2459   1.084       .  S
C2455      C2456   1.413       .  A
C2455     Br2463   1.918       .  S
C2456      C2457   1.404       .  A
C2457      C2458   1.399       .  A
C2457      H2460   1.081       .  S
C2458     Br2464   1.916       .  S
C2465      C2470   1.404       .  A
C2466      C2467   1.391       .  A
C2466     Br2482   1.925       .  S
C2467      H2471   1.081       .  S
C2468      C2472   1.508       .  S
C2468      C2469   1.424       .  A
C2469      C2470   1.407       .  A
C2469     Br2481   1.918       .  S
C2470      H2473   1.083       .  S
C2472      C2478   1.422       .  A
C2474      C2475   1.402       .  A
C2474      H2479   1.079       .  S
C2475      C2476   1.409       .  A
C2477      C2478   1.399       .  A
C2477      H2480   1.083       .  S
C2478     Br2484   1.920       .  S
C2485      C2486   1.416   1_545  A
C2486      C2487   1.400       .  A
C2486     Br2502   1.921       .  S
C2487      C2488   1.405   1_565  A
C2487      H2491   1.083       .  S
C2488      C2492   1.484       .  S
C2489      C2490   1.393       .  A
C2489     Br2501   1.921       .  S
C2490      H2493   1.083       .  S
C2492      C2498   1.417   1_545  A
C2494      C2495   1.389       .  A
C2494      H2499   1.082       .  S
C2495     Br2503   1.924       .  S
C2496      C2497   1.401   1_545  A
C2497      C2498   1.402       .  A
C2497      H2500   1.083       .  S
C2498     Br2504   1.919       .  S
C2505      C2506   1.409       .  A
C2506      C2507   1.397       .  A
C2506     Br2522   1.918       .  S
C2507      C2508   1.403       .  A
C2507      H2511   1.084       .  S
C2508      C2512   1.479       .  S
C2509      C2510   1.394       .  A
C2509     Br2521   1.908       .  S
C2510      H2513   1.084       .  S
C2512      C2518   1.407       .  A
C2514      C2515   1.399   1_545  A
C2514      H2519   1.084   1_545  S
C2515     Br2523   1.920       .  S
C2516      C2517   1.406       .  A
C2517      C2518   1.397       .  A
C2517      H2520   1.083       .  S
C2518     Br2524   1.919       .  S
C2525      C2530   1.403       .  A
C2526      C2527   1.394       .  A
C2526     Br2542   1.919       .  S
C2527      H2531   1.083       .  S
C2528      C2532   1.493       .  S
C2528      C2529   1.414       .  A
C2529      C2530   1.404       .  A
C2529     Br2541   1.915   1_565  S
C2530      H2533   1.083   1_565  S
C2532      C2534   1.406       .  A
C2532      C2538   1.413       .  A
C2534      C2535   1.400       .  A
C2535      C2536   1.406       .  A
C2536      C2537   1.401       .  A
C2537      C2538   1.399       .  A
C2537      H2540   1.083       .  S
C2538     Br2544   1.918       .  S
C2545      C2546   1.408       .  A
C2545      C2550   1.402       .  A
C2546      C2547   1.402       .  A
C2546     Br2562   1.918       .  S
C2547      C2548   1.406       .  A
C2547      H2551   1.084       .  S
C2548      C2552   1.482       .  S
C2548      C2549   1.409       .  A
C2549      C2550   1.397       .  A
C2549     Br2561   1.920       .  S
C2550      H2553   1.084       .  S
C2552      C2554   1.403       .  A
C2552      C2558   1.409       .  A
C2554      C2555   1.396       .  A
C2554      H2559   1.084       .  S
C2555      C2556   1.408       .  A
C2555     Br2563   1.918       .  S
C2556      C2557   1.405       .  A
C2557      C2558   1.402       .  A
C2557      H2560   1.083   1_655  S
C2558     Br2564   1.918       .  S
C2565      C2566   1.409       .  A
C2565      C2570   1.406       .  A
C2566      C2567   1.397       .  A
C2566     Br2582   1.918       .  S
C2567      C2568   1.403       .  A
C2567      H2571   1.084       .  S
C2568      C2572   1.481       .  S
C2568      C2569   1.409       .  A
C2569      C2570   1.401       .  A
C2569     Br2581   1.919       .  S
C2570      H2573   1.083       .  S
C2572      C2574   1.405       .  A
C2572      C2578   1.409       .  A
C2574      C2575   1.401       .  A
C2574      H2579   1.083       .  S
C2575      C2576   1.407       .  A
C2575     Br2583   1.916       .  S
C2576      C2577   1.402       .  A
C2577      C2578   1.397       .  A
C2577      H2580   1.084       .  S
C2578     Br2584   1.915       .  S
C2585      C2586   1.408       .  A
C2586      C2587   1.400       .  A
C2586     Br2602   1.916       .  S
C2587      C2588   1.403       .  A
C2587      H2591   1.082       .  S
C2588      C2592   1.486       .  S
C2589      C2590   1.397       .  A
C2589     Br2601   1.919       .  S
C2590      H2593   1.084       .  S
C2592      C2594   1.403       .  A
C2594      C2595   1.397       .  A
C2594      H2599   1.083       .  S
C2595      C2596   1.409       .  A
C2595     Br2603   1.919       .  S
C2596      C2597   1.404       .  A
C2598     Br2604   1.918       .  S
C2605      C2606   1.408       .  A
C2606      C2607   1.400       .  A
C2606     Br2622   1.917       .  S
C2607      C2608   1.401       .  A
C2607      H2611   1.082       .  S
C2608      C2612   1.475       .  S
C2609      C2610   1.393   1_545  A
C2609     Br2621   1.919   1_545  S
C2610      H2613   1.081       .  S
C2612      C2618   1.406       .  A
C2614      C2615   1.399       .  A
C2614      H2619   1.083       .  S
C2615     Br2623   1.918       .  S
C2616      C2617   1.404       .  A
C2617      C2618   1.398       .  A
C2617      H2620   1.083       .  S
C2618     Br2624   1.919       .  S
C2625      C2626   1.405       .  A
C2625      C2630   1.405       .  A
C2626      C2627   1.394       .  A
C2626     Br2642   1.920       .  S
C2627      C2628   1.405       .  A
C2627      H2631   1.084       .  S
C2628      C2632   1.484       .  S
C2628      C2629   1.409       .  A
C2629      C2630   1.404       .  A
C2629     Br2641   1.916   1_565  S
C2630      H2633   1.083   1_565  S
C2632      C2634   1.404       .  A
C2632      C2638   1.409       .  A
C2634      C2635   1.401       .  A
C2634      H2639   1.083       .  S
C2635      C2636   1.410       .  A
C2635     Br2643   1.919       .  S
C2636      C2637   1.401       .  A
C2637      C2638   1.398       .  A
C2637      H2640   1.083       .  S
C2638     Br2644   1.915       .  S
C2645      C2646   1.404       .  A
C2645      C2650   1.403       .  A
C2646      C2647   1.395       .  A
C2646     Br2662   1.918       .  S
C2647      C2648   1.408       .  A
C2647      H2651   1.084       .  S
C2648      C2652   1.488       .  S
C2648      C2649   1.413       .  A
C2649      C2650   1.401       .  A
C2649     Br2661   1.920       .  S
C2650      H2653   1.083       .  S
C2652      C2654   1.408       .  A
C2652      C2658   1.415       .  A
C2654      C2655   1.398       .  A
C2654      H2659   1.084       .  S
C2655      C2656   1.405       .  A
C2655     Br2663   1.917       .  S
C2656      C2657   1.401       .  A
C2657      C2658   1.398       .  A
C2657      H2660   1.084       .  S
C2658     Br2664   1.917       .  S
C2665      C2666   1.408       .  A
C2665      C2670   1.403       .  A
C2666      C2667   1.400       .  A
C2666     Br2682   1.917       .  S
C2667      C2668   1.403       .  A
C2667      H2671   1.083       .  S
C2668      C2672   1.476       .  S
C2668      C2669   1.406       .  A
C2669      C2670   1.395       .  A
C2669     Br2681   1.918       .  S
C2670      H2673   1.084       .  S
C2672      C2674   1.402       .  A
C2674      C2675   1.400       .  A
C2674      H2679   1.083       .  S
C2675      C2676   1.408       .  A
C2675     Br2683   1.916       .  S
C2677      C2678   1.392       .  A
C2677      H2680   1.083   1_455  S
C2678     Br2684   1.921   1_455  S
C2685      C2690   1.403       .  A
C2686      C2687   1.396       .  A
C2686     Br2702   1.917       .  S
C2687      H2691   1.082       .  S
C2688      C2692   1.472       .  S
C2688      C2689   1.406       .  A
C2689      C2690   1.397       .  A
C2689     Br2701   1.918       .  S
C2690      H2693   1.084       .  S
C2692      C2694   1.401       .  A
C2694      C2695   1.396   1_565  A
C2694      H2699   1.084   1_565  S
C2695      C2696   1.410   1_545  A
C2695     Br2703   1.919       .  S
C2697      C2698   1.400       .  A
C2697      H2700   1.083       .  S
C2698     Br2704   1.917       .  S
