geometry optimzed in LAMMPS
_audit_creation_date              2020-11-30 
_audit_creation_method            'lammps2cif' 
_symmetry_space_group_name_H-M    'P1' 
_symmetry_Int_Tables_number       1 
_symmetry_cell_setting            triclinic 
loop_ 
_symmetry_equiv_pos_as_xyz 
  x,y,z 
_cell_length_a                    29.56288256 
_cell_length_b                    29.668960330994572 
_cell_length_c                    29.635465377078134 
_cell_angle_alpha                 90.0339007140396 
_cell_angle_beta                  89.83544052696381 
_cell_angle_gamma                 89.87730130057452 
loop_ 
_atom_site_label 
_atom_site_type_symbol 
_atom_site_fract_x 
_atom_site_fract_y 
_atom_site_fract_z 
_atom_site_charge 
O1          O  0.94916086  0.02021061  0.43636092    -0.88600
C2          C  0.92292577  0.02505628  0.57220340     0.87400
Mg3        Mg  0.96071273  0.95896005  0.39961139     1.58100
O4          O  0.03293189  0.05940083  0.54144813    -0.88300
O5          O  0.98317501  0.08438453  0.44926515    -0.75700
C6          C  0.11094230  0.84881649  0.52371292     0.92500
O7          O  0.89675629  0.94638739  0.49664491    -0.75500
O8          O  0.07963961  0.84060509  0.49546676    -0.83000
Mg9        Mg  0.89033943  0.02150360  0.47957080     1.58000
C10         C  0.14265517  0.00748675  0.61474822     0.92400
O11         O  0.87248646  0.09508824  0.46498587    -0.81200
H12         H  0.07430816  0.10003374  0.50691556    -0.06600
C13         C  0.01939380  0.92831646  0.58206229     0.87300
O14         O  0.03767981  0.96795235  0.40444552    -0.75800
O15         O  0.93327707  0.04002321  0.53474138    -0.88500
O16         O  0.10669835  0.03053511  0.62132081    -0.81300
C17         C  0.98886369  0.12054938  0.63569079     0.92500
C18         C  0.87908048  0.13392268  0.48190610     0.92400
Mg19       Mg  0.09890304  0.95955252  0.52619429     1.58000
O20         O  0.11329232  0.88639864  0.54417594    -0.81200
O21         O  0.09417872  0.03454524  0.50805480    -0.75500
O22         O  0.96787952  0.12341673  0.59823659    -0.81300
O23         O  0.84494790  0.00271969  0.42130383    -0.83000
O24         O  0.02375282  0.85934045  0.40517257    -0.81400
C25         C  0.06746819  0.06632240  0.51892713     0.86800
O26         O  0.05670492  0.94177143  0.47051320    -0.88500
O27         O  0.04004633  0.96206242  0.56880883    -0.88600
O28         O  0.00723937  0.89726161  0.55508096    -0.75700
Mg29       Mg  0.97449658  0.09910305  0.52490120     1.58000
O30         O  0.01731341  0.08916449  0.64326047    -0.83000
H31         H  0.97751038  0.05646255  0.38702793    -0.06800
O32         O  0.95777415  0.92183416  0.46267261    -0.88300
H33         H  0.91687926  0.88099090  0.49746408    -0.06600
H34         H  0.10257582  0.96426890  0.42631461    -0.06800
C35         C  0.92347362  0.91475175  0.48545218     0.86800
C36         C  0.96965883  0.05377702  0.42257727     0.87400
C37         C  0.06733422  0.95770991  0.43354176     0.87400
H38         H  0.01068441  0.92554908  0.61740778    -0.06700
O39         O  0.95280878  0.01556673  0.60134451    -0.75800
Mg40       Mg  0.01654868  0.88232284  0.47908559     1.58000
H41         H  0.88772427  0.01885754  0.57993265    -0.06800
C42         C  0.84820172  0.97469595  0.38894675     0.92400
O43         O  0.97458825  0.89481350  0.36065328    -0.83000
C44         C  0.00330727  0.86351185  0.36754587     0.92500
O45         O  0.91270145  0.14152186  0.50758239    -0.83000
Mg46       Mg  0.02996646  0.02389593  0.60525772     1.58200
O47         O  0.88455456  0.95237775  0.38214282    -0.81300
O48         O  0.14468823  0.97794048  0.58378246    -0.83000
O49         O  0.03524504  0.43708148  0.94821042    -0.88600
C50         C  0.01443020  0.56967318  0.91635882     0.87400
Mg51       Mg  0.98140663  0.39246609  0.96830070     1.58100
O52         O  0.06698437  0.55037429  0.02131588    -0.88300
O53         O  0.10077071  0.46154160  0.97178326    -0.75700
C54         C  0.87000894  0.50570557  0.12583891     0.92500
O55         O  0.94762836  0.48182635  0.90315731    -0.75500
O56         O  0.86216784  0.47631812  0.09554081    -0.83000
Mg57       Mg  0.02373898  0.47572603  0.88784363     1.58000
C58         C  0.01912443  0.61859238  0.13407717     0.92400
O59         O  0.09747112  0.47073738  0.86270499    -0.81200
H60         H  0.11759223  0.52366193  0.05705246    -0.06600
C61         C  0.92997214  0.56935114  0.02557111     0.87300
O62         O  0.99932675  0.40075695  0.04289003    -0.75800
O63         O  0.03776106  0.53626921  0.92513540    -0.88500
O64         O  0.03563264  0.62689010  0.09518217    -0.81300
C65         C  0.10770405  0.65135077  0.97020170     0.92500
C66         C  0.13332406  0.49454506  0.86418477     0.92400
Mg67       Mg  0.97986017  0.52176852  0.10105089     1.58000
O68         O  0.90718614  0.52728426  0.12692915    -0.81200
O69         O  0.05560596  0.51532382  0.08531406    -0.75500
O70         O  0.11504400  0.61460141  0.94886797    -0.81300
O71         O  0.00906484  0.41214543  0.84820408    -0.83000
O72         O  0.88610060  0.38495136  0.04079641    -0.81400
C73         C  0.08169084  0.53023931  0.05470542     0.86800
O74         O  0.96447860  0.46219817  0.06389447    -0.88500
O75         O  0.96779981  0.56163211  0.04141113    -0.88600
O76         O  0.90203643  0.53789702  0.01769561    -0.75700
Mg77       Mg  0.10198093  0.53818039  0.95940986     1.58000
O78         O  0.07690828  0.65439943  0.00014468    -0.83000
H79         H  0.08261070  0.39558780  0.97256804    -0.06800
O80         O  0.93564291  0.44908849  0.96834067    -0.88300
H81         H  0.88542269  0.47499957  0.93145230    -0.06600
H82         H  0.99927937  0.42404261  0.10725540    -0.06800
C83         C  0.92127045  0.46832910  0.93426063     0.86800
C84         C  0.07313441  0.42975573  0.96408517     0.87400
C85         C  0.98753459  0.42872794  0.07305914     0.87400
H86         H  0.92087357  0.60362679  0.01711222    -0.06700
O87         O  0.00325328  0.59780358  0.94668692    -0.75800
Mg88       Mg  0.89984513  0.46144737  0.03012040     1.58000
H89         H  0.00219242  0.57437255  0.88233700    -0.06800
C90         C  0.98349006  0.37875087  0.85653985     0.92400
O91         O  0.92475323  0.34571180  0.98971004    -0.83000
C92         C  0.89351974  0.34832148  0.01923670     0.92500
O93         O  0.13884189  0.52457509  0.89426390    -0.83000
Mg94       Mg  0.02093419  0.60689827  0.02158971     1.58200
O95         O  0.96580692  0.37316406  0.89535046    -0.81300
O96         O  0.99552888  0.58366175  0.14130318    -0.83000
O97         O  0.44077984  0.54852159  0.46325503    -0.88600
C98         C  0.57274285  0.58193382  0.47431187     0.87400
Mg99       Mg  0.40209628  0.53424078  0.52223147     1.58100
O100        O  0.55252899  0.47008209  0.43965580    -0.88300
O101        O  0.46110791  0.51313933  0.40194256    -0.75700
C102        C  0.52094787  0.39492216  0.65105066     0.92500
O103        O  0.48841778  0.60656178  0.54107123    -0.75500
O104        O  0.49373183  0.42810852  0.65314022    -0.83000
Mg105      Mg  0.47805228  0.61066426  0.46415758     1.58000
C106        C  0.62948292  0.36487690  0.49546399     0.92400
O107        O  0.47089928  0.62585813  0.38716028    -0.81200
H108        H  0.52662997  0.42591615  0.39583953    -0.06600
C109        C  0.58371331  0.48481728  0.57257561     0.87300
O110        O  0.41315081  0.45817149  0.51363133    -0.75800
O111        O  0.53849184  0.57118973  0.45298440    -0.88500
O112        O  0.63375732  0.40133245  0.47296219    -0.81300
C113        C  0.64952078  0.51709680  0.38439735     0.92500
C114        C  0.49349557  0.61708702  0.35133014     0.92400
Mg115      Mg  0.53507730  0.40124419  0.53803802     1.58000
O116        O  0.54273143  0.38590437  0.61482181    -0.81200
O117        O  0.52470645  0.40534475  0.46114728    -0.75500
O118        O  0.61179999  0.53684063  0.37799821    -0.81300
O119        O  0.41295512  0.65099845  0.47785240    -0.83000
O120        O  0.40288917  0.47441529  0.62445669    -0.81400
C121        C  0.53473355  0.43358436  0.43055329     0.86800
O122        O  0.47566856  0.44089621  0.54935552    -0.88500
O123        O  0.57395092  0.46266978  0.53871858    -0.88600
O124        O  0.55354390  0.49848500  0.59985600    -0.75700
Mg125      Mg  0.53723204  0.52596616  0.39578571     1.58000
O126        O  0.65534542  0.49057725  0.41752696    -0.83000
H127        H  0.39604971  0.51752729  0.42350895    -0.06800
O128        O  0.46217614  0.54108299  0.56234625    -0.88300
H129        H  0.48734045  0.58558559  0.60627221    -0.06600
H130        H  0.43694157  0.39432334  0.51988726    -0.06800
C131        C  0.47925738  0.57790430  0.57155629     0.86800
C132        C  0.43093972  0.52669547  0.42924192     0.87400
C133        C  0.44167897  0.42953052  0.52797889     0.87400
H134        H  0.61857696  0.49415146  0.57820189    -0.06700
O135        O  0.60144653  0.55285257  0.48761321    -0.75800
Mg136      Mg  0.47739944  0.48575817  0.60662526     1.58000
H137        H  0.57783255  0.61697119  0.48291801    -0.06800
C138        C  0.38284230  0.64450215  0.50810133     0.92400
O139        O  0.35965825  0.51963210  0.58323362    -0.83000
C140        C  0.36511181  0.49336405  0.61654668     0.92500
O141        O  0.52103906  0.58411303  0.34964696    -0.83000
Mg142      Mg  0.61295943  0.47632347  0.47948612     1.58200
O143        O  0.38149080  0.60793779  0.53051821    -0.81300
O144        O  0.59795927  0.35976123  0.52435995    -0.83000
O145        O  0.55309859  0.96236175  0.04710915    -0.88600
C146        C  0.41692189  0.97317135  0.06622504     0.87400
Mg147      Mg  0.59735318  0.01970818  0.04546609     1.58100
O148        O  0.45095840  0.94616715  0.95550142    -0.88300
O149        O  0.53511416  0.90335308  0.00679941    -0.75700
C150        C  0.50335136  0.16058447  0.89872742     0.92500
O151        O  0.49943108  0.03657480  0.10454266    -0.75500
O152        O  0.52765263  0.16174161  0.93423130    -0.83000
Mg153      Mg  0.50752892  0.95920472  0.10356197     1.58000
C154        C  0.39151246  0.01500123  0.84761257     0.92400
O155        O  0.51321012  0.88232141  0.11168372    -0.81200
H156        H  0.48255380  0.90544558  0.91180966    -0.06600
C157        C  0.42593501  0.08113892  0.97738572     0.87300
O158        O  0.59813232  0.01898852  0.96789186    -0.75800
O159        O  0.45214111  0.95261777  0.05697722    -0.88500
O160        O  0.38177755  0.99034324  0.88142895    -0.81300
C161        C  0.34620164  0.89288206  0.98388969     0.92500
C162        C  0.49142217  0.84710464  0.10025455     0.92400
Mg163      Mg  0.48302791  0.04925247  0.89884361     1.58000
O164        O  0.47998327  0.12599326  0.88835369    -0.81200
O165        O  0.49002795  0.97207123  0.89834049    -0.75500
O166        O  0.38075743  0.88188784  0.00723356    -0.81300
O167        O  0.56607449  0.96508930  0.15330024    -0.83000
O168        O  0.61079552  0.12698377  0.99642191    -0.81400
C169        C  0.47429432  0.93963792  0.92146150     0.86800
O170        O  0.53811984  0.05605524  0.94611547    -0.88500
O171        O  0.43675559  0.04746412  0.95526475    -0.88600
O172        O  0.45547642  0.10705833  0.99447307    -0.75700
Mg173      Mg  0.45746217  0.89782607  0.00917939     1.58000
O174        O  0.34531873  0.92905433  0.96080420    -0.83000
H175        H  0.59984737  0.92287708  0.01829918    -0.06800
O176        O  0.53876527  0.06363401  0.04790340    -0.88300
H177        H  0.50548982  0.10343316  0.09126631    -0.06600
H178        H  0.58316356  0.03118723  0.90221331    -0.06800
C179        C  0.51466804  0.06947047  0.08160922     0.86800
C180        C  0.56432723  0.92929354  0.02432163     0.87400
C181        C  0.57351994  0.03576978  0.93713407     0.87400
H182        H  0.39048825  0.08822867  0.98308979    -0.06700
O183        O  0.39233466  0.99051503  0.03572710    -0.75800
Mg184      Mg  0.53337632  0.11170322  0.99314065     1.58000
H185        H  0.40752562  0.97766679  0.10122521    -0.06800
C186        C  0.59974292  0.99166024  0.15497879     0.92400
O187        O  0.64439473  0.07950782  0.04385691    -0.83000
C188        C  0.64448981  0.11573610  0.02102532     0.92500
O189        O  0.46507852  0.84675644  0.06627969    -0.83000
Mg190      Mg  0.39240766  0.98963255  0.95815042     1.58200
O191        O  0.60856931  0.01820601  0.12233716    -0.81300
O192        O  0.42459790  0.04246934  0.84847723    -0.83000
C193        C  0.49017128  0.64715688  0.31095281    -0.20100
C194        C  0.45780252  0.68212962  0.30736669     0.36100
C195        C  0.45886260  0.71146196  0.27008362    -0.26100
C196        C  0.49164688  0.70687210  0.23594687     0.02500
C197        C  0.52378502  0.67185280  0.23909086     0.27300
C198        C  0.52264338  0.64247675  0.27628975    -0.25200
N199        N  0.42389591  0.68833546  0.34143851    -0.82600
H200        H  0.43429729  0.73855725  0.26819169     0.13100
C201        C  0.49262329  0.73966993  0.19782720     0.02500
N202        N  0.55762712  0.66634804  0.20455647    -0.81200
H203        H  0.54803799  0.61620478  0.27845651     0.18000
C204        C  0.53209043  0.76462984  0.18949536    -0.26000
C205        C  0.53330805  0.79789908  0.15583963     0.36000
C206        C  0.49431926  0.80691420  0.12996859    -0.20000
C207        C  0.45552543  0.78046630  0.13681340    -0.25300
C208        C  0.45424139  0.74703991  0.17051881     0.27400
H209        H  0.56185931  0.75909039  0.21003093     0.13100
N210        N  0.57420906  0.82259030  0.14817089    -0.82600
H211        H  0.42540512  0.78720659  0.11716675     0.18000
N212        N  0.41388843  0.72101979  0.17762596    -0.81200
H213        H  0.59975812  0.79954066  0.13997784     0.33600
H214        H  0.58316528  0.83849276  0.17831848     0.38100
H215        H  0.38858113  0.73081112  0.15508204     0.33600
H216        H  0.42163660  0.68740358  0.17025785     0.30300
H217        H  0.57910940  0.63935463  0.21211924     0.33600
H218        H  0.54101468  0.65800707  0.17461952     0.30300
H219        H  0.42725065  0.72088969  0.35455612     0.38100
H220        H  0.39218383  0.68606222  0.32609845     0.33600
C221        C  0.50501136  0.19831947  0.86560084    -0.20100
C222        C  0.51242714  0.24362226  0.87821471     0.36100
C223        C  0.51742257  0.27680990  0.84442659    -0.26100
C224        C  0.51479145  0.26572044  0.79833682     0.02500
C225        C  0.50644607  0.22062781  0.78585582     0.27300
C226        C  0.50181251  0.18759033  0.81946090    -0.25200
N227        N  0.51439458  0.25584950  0.92508435    -0.82600
H228        H  0.52350624  0.31150926  0.85402201     0.13100
C229        C  0.51952310  0.30152229  0.76327251     0.02500
N230        N  0.50249154  0.20855088  0.73902025    -0.81200
H231        H  0.49645972  0.15289908  0.80938335     0.18000
C232        C  0.55232477  0.29697796  0.72913376    -0.26000
C233        C  0.55484182  0.32775815  0.69310890     0.36000
C234        C  0.52440860  0.36454455  0.69118198    -0.20000
C235        C  0.49310904  0.37011761  0.72676097    -0.25300
C236        C  0.48990673  0.33880498  0.76223179     0.27400
H237        H  0.57553383  0.26866337  0.72989154     0.13100
N238        N  0.58790897  0.32090357  0.65835750    -0.82600
H239        H  0.46935065  0.39794182  0.72598759     0.18000
N240        N  0.45547589  0.34382275  0.79625075    -0.81200
H241        H  0.61990146  0.32069586  0.67330420     0.33600
H242        H  0.58243381  0.28915495  0.64406375     0.38100
H243        H  0.43649716  0.37306706  0.79074980     0.33600
H244        H  0.43315207  0.31672209  0.79298661     0.30300
H245        H  0.49680739  0.17396995  0.73548443     0.33600
H246        H  0.47386259  0.22485581  0.72625135     0.30300
H247        H  0.48258935  0.24940901  0.93917143     0.38100
H248        H  0.52000222  0.29046379  0.92858629     0.33600
C249        C  0.86277556  0.30884223  0.02653034    -0.20100
C250        C  0.86536667  0.26961302  0.99925892     0.36100
C251        C  0.83164647  0.23649307  0.00229047    -0.26100
C252        C  0.79489457  0.24134742  0.03178300     0.02500
C253        C  0.79296067  0.27910199  0.06064978     0.27300
C254        C  0.82701341  0.31225615  0.05798025    -0.25200
N255        N  0.90121116  0.26367757  0.96715718    -0.82600
H256        H  0.83336277  0.20737359  0.98023477     0.13100
C257        C  0.75691434  0.20863459  0.02901754     0.02500
N258        N  0.75561961  0.28440264  0.09139918    -0.81200
H259        H  0.82442332  0.34180984  0.07931455     0.18000
C260        C  0.74834878  0.17902381  0.06484052    -0.26000
C261        C  0.71235882  0.14794480  0.06294986     0.36000
C262        C  0.68428296  0.14647564  0.02412714    -0.20000
C263        C  0.69320847  0.17629041  0.98840810    -0.25300
C264        C  0.72918367  0.20717149  0.99041584     0.27400
H265        H  0.76973584  0.18036813  0.09444709     0.13100
N266        N  0.70386488  0.11864815  0.10068336    -0.82600
H267        H  0.67197268  0.17554711  0.95868608     0.18000
N268        N  0.73758996  0.23739089  0.95344216    -0.81200
H269        H  0.72812115  0.12335675  0.12584374     0.33600
H270        H  0.67277661  0.12803049  0.11480101     0.38100
H271        H  0.71447955  0.23187622  0.92739955     0.33600
H272        H  0.73195610  0.27021205  0.96508074     0.30300
H273        H  0.75918258  0.31394185  0.11029522     0.33600
H274        H  0.72625426  0.28830562  0.07218246     0.30300
H275        H  0.91798506  0.23355578  0.97465724     0.38100
H276        H  0.88685586  0.26050219  0.93510170     0.33600
C277        C  0.30710230  0.86125637  0.98128367    -0.20100
C278        C  0.29818172  0.82932588  0.01562941     0.36100
C279        C  0.26415214  0.79682698  0.00920360    -0.26100
C280        C  0.23844860  0.79579013  0.96954930     0.02500
C281        C  0.24624739  0.82818250  0.93575473     0.27300
C282        C  0.28029832  0.86074039  0.94201985    -0.25200
N283        N  0.32355676  0.83000158  0.05693498    -0.82600
H284        H  0.25761855  0.77200665  0.03522138     0.13100
C285        C  0.20391878  0.75997725  0.96392328     0.02500
N286        N  0.21995111  0.82745915  0.89503183    -0.81200
H287        H  0.28694472  0.88484126  0.91537441     0.18000
C288        C  0.15846995  0.76942111  0.97370249    -0.26000
C289        C  0.12561269  0.73506684  0.97329611     0.36000
C290        C  0.13863963  0.69028689  0.96289039    -0.20000
C291        C  0.18385202  0.68164844  0.95056842    -0.25300
C292        C  0.21661777  0.71596888  0.95127487     0.27400
H293        H  0.14890058  0.80349322  0.98290399     0.13100
N294        N  0.07930478  0.74537956  0.98410715    -0.82600
H295        H  0.19425578  0.64751570  0.94258909     0.18000
N296        N  0.26308577  0.70607562  0.94072498    -0.81200
H297        H  0.07550676  0.77969628  0.99136148     0.33600
H298        H  0.06003896  0.73901205  0.95529656     0.38100
H299        H  0.26705594  0.67195993  0.93274018     0.33600
H300        H  0.27158805  0.72418743  0.91167420     0.30300
H301        H  0.22972509  0.85365912  0.87355376     0.33600
H302        H  0.22733282  0.79739447  0.87809124     0.30300
H303        H  0.31610286  0.86032146  0.07342433     0.38100
H304        H  0.31306434  0.80412953  0.07844209     0.33600
C305        C  0.32725781  0.48727056  0.64864028    -0.20100
C306        C  0.32317781  0.44840215  0.67594748     0.36100
C307        C  0.28936663  0.44693397  0.70935497    -0.26100
C308        C  0.26009592  0.48352558  0.71597592     0.02500
C309        C  0.26318013  0.52166847  0.68799384     0.27300
C310        C  0.29654158  0.52305482  0.65438319    -0.25200
N311        N  0.35358189  0.41095417  0.67008483    -0.82600
H312        H  0.28658029  0.41777325  0.73118506     0.13100
C313        C  0.22869156  0.48328884  0.75466016     0.02500
N314        N  0.23321142  0.55931892  0.69480641    -0.81200
H315        H  0.29968558  0.55307232  0.63379522     0.18000
C316        C  0.23957577  0.50911857  0.79253945    -0.26000
C317        C  0.21024621  0.51164871  0.82972997     0.36000
C318        C  0.16832837  0.48849955  0.82842717    -0.20000
C319        C  0.15831642  0.46148908  0.79057419    -0.25300
C320        C  0.18815349  0.45869769  0.75367018     0.27400
H321        H  0.27124011  0.52747611  0.79294798     0.13100
N322        N  0.22297406  0.53786449  0.86848002    -0.82600
H323        H  0.12655480  0.44342051  0.78907754     0.18000
N324        N  0.17723629  0.43164117  0.71495280    -0.81200
H325        H  0.25412762  0.55369989  0.86318970     0.33600
H326        H  0.22765449  0.51548797  0.89529380     0.38100
H327        H  0.14621183  0.41543284  0.71963271     0.33600
H328        H  0.17320235  0.45336288  0.68747012     0.30300
H329        H  0.24042144  0.58511168  0.67186727     0.33600
H330        H  0.20038587  0.54839189  0.68775299     0.30300
H331        H  0.34784177  0.39748578  0.63802165     0.38100
H332        H  0.34628212  0.38539442  0.69327674     0.33600
C333        C  0.68612706  0.52328721  0.35029993    -0.20100
C334        C  0.72633232  0.49728237  0.35084483     0.36100
C335        C  0.75679951  0.49993010  0.31458011    -0.26100
C336        C  0.74794250  0.52768615  0.27739459     0.02500
C337        C  0.70899892  0.55502251  0.27728567     0.27300
C338        C  0.67860866  0.55271680  0.31373267    -0.25200
N339        N  0.73585935  0.46696112  0.38722535    -0.82600
H340        H  0.78681153  0.47887243  0.31469509     0.13100
C341        C  0.77843263  0.52560797  0.23771306     0.02500
N342        N  0.70013802  0.58437588  0.23973896    -0.81200
H343        H  0.64821673  0.57314871  0.31276820     0.18000
C344        C  0.76183805  0.50869436  0.19679955    -0.26000
C345        C  0.79051403  0.50228014  0.15936672     0.36000
C346        C  0.83684258  0.51373731  0.16288909    -0.20000
C347        C  0.85277637  0.53227501  0.20367004    -0.25300
C348        C  0.82412412  0.53816384  0.24105408     0.27400
H349        H  0.72655061  0.49914046  0.19456393     0.13100
N350        N  0.77248001  0.48455592  0.11801592    -0.82600
H351        H  0.88810955  0.54130352  0.20690827     0.18000
N352        N  0.84124624  0.55647817  0.28255267    -0.81200
H353        H  0.73723429  0.48226646  0.11991994     0.33600
H354        H  0.78421592  0.45146023  0.11471317     0.38100
H355        H  0.87571359  0.56380630  0.27957051     0.33600
H356        H  0.82472026  0.58714927  0.28827808     0.30300
H357        H  0.66981685  0.60195115  0.24459168     0.33600
H358        H  0.72587913  0.60847449  0.23879447     0.30300
H359        H  0.73898471  0.43442854  0.37394843     0.38100
H360        H  0.76697009  0.47597672  0.40123494     0.33600
C361        C  0.84467113  0.17011196  0.47442146    -0.20100
C362        C  0.80518079  0.16296309  0.44806013     0.36100
C363        C  0.77039019  0.19541678  0.44843114    -0.26100
C364        C  0.77407447  0.23472838  0.47419115     0.02500
C365        C  0.81390195  0.24308147  0.49865374     0.27300
C366        C  0.84880637  0.21087093  0.49842446    -0.25200
N367        N  0.79967492  0.12237528  0.42209468    -0.82600
H368        H  0.73964362  0.18952333  0.42951030     0.13100
C369        C  0.73500682  0.26584970  0.47754230     0.02500
N370        N  0.81811383  0.28378981  0.52463546    -0.81200
H371        H  0.87867574  0.21706134  0.51856023     0.18000
C372        C  0.70943436  0.26627559  0.51735968    -0.26000
C373        C  0.67393950  0.29724751  0.52361040     0.36000
C374        C  0.66364802  0.32848837  0.48892160    -0.20000
C375        C  0.68866493  0.32689394  0.44842359    -0.25300
C376        C  0.72418635  0.29579784  0.44239019     0.27400
H377        H  0.71801139  0.24292552  0.54413647     0.13100
N378        N  0.64953293  0.29791378  0.56564907    -0.82600
H379        H  0.68093580  0.35044895  0.42159004     0.18000
N380        N  0.74971396  0.29486414  0.40104486    -0.81200
H381        H  0.66043748  0.27187280  0.58679000     0.33600
H382        H  0.65751363  0.32802722  0.58210048     0.38100
H383        H  0.73730717  0.31888968  0.37841513     0.33600
H384        H  0.78291150  0.30424175  0.40860055     0.30300
H385        H  0.84925288  0.28466797  0.54125256     0.33600
H386        H  0.81797844  0.31084864  0.50204953     0.30300
H387        H  0.76803935  0.12175217  0.40637848     0.38100
H388        H  0.82379051  0.12288879  0.39624946     0.33600
C389        C  0.14879939  0.81652376  0.53038504    -0.20100
C390        C  0.14488226  0.76981569  0.52211337     0.36100
C391        C  0.18405116  0.74259459  0.52294939    -0.26100
C392        C  0.22679793  0.76125914  0.53177300     0.02500
C393        C  0.23034012  0.80737868  0.54211355     0.27300
C394        C  0.19143581  0.83440181  0.54148347    -0.25200
N395        N  0.10149674  0.75034676  0.51250502    -0.82600
H396        H  0.18150756  0.70694307  0.51544426     0.13100
C397        C  0.26801379  0.73285344  0.52787842     0.02500
N398        N  0.27368837  0.82673259  0.55231200    -0.81200
H399        H  0.19493305  0.87018031  0.54791936     0.18000
C400        C  0.30029354  0.74309567  0.49464953    -0.26000
C401        C  0.33930749  0.71642779  0.48868656     0.36000
C402        C  0.34602886  0.67818740  0.51649099    -0.20000
C403        C  0.31403821  0.66913778  0.55082453    -0.25300
C404        C  0.27526474  0.69599374  0.55674101     0.27400
H405        H  0.29458568  0.77179449  0.47276974     0.13100
N406        N  0.37119450  0.72753665  0.45373998    -0.82600
H407        H  0.31864794  0.64032802  0.57278124     0.18000
N408        N  0.24302682  0.68580570  0.59169151    -0.81200
H409        H  0.36002387  0.75534186  0.43514820     0.33600
H410        H  0.40115931  0.73748207  0.46948102     0.38100
H411        H  0.25309251  0.65730686  0.60983577     0.33600
H412        H  0.24296148  0.71275739  0.61445412     0.30300
H413        H  0.27061968  0.86130232  0.55861866     0.33600
H414        H  0.28514937  0.81201840  0.58221326     0.30300
H415        H  0.08134042  0.75430540  0.54128008     0.38100
H416        H  0.10459480  0.71564424  0.50701266     0.33600
C417        C  0.36123182  0.01339401  0.80761574    -0.20100
C418        C  0.33776362  0.97368835  0.79586642     0.36100
C419        C  0.30495576  0.97477453  0.76169984    -0.26100
C420        C  0.29462507  0.01494900  0.73894823     0.02500
C421        C  0.31879704  0.05449524  0.74964348     0.27300
C422        C  0.35202095  0.05327512  0.78367257    -0.25200
N423        N  0.34708528  0.93210694  0.81860522    -0.82600
H424        H  0.28662091  0.94422497  0.75365043     0.13100
C425        C  0.25735048  0.01528524  0.70520723     0.02500
N426        N  0.30906337  0.09581427  0.72626867    -0.81200
H427        H  0.36956527  0.08400283  0.79268282     0.18000
C428        C  0.21935133  0.04279639  0.71251676    -0.26000
C429        C  0.18220684  0.04199281  0.68298656     0.36000
C430        C  0.18275606  0.01314949  0.64493564    -0.20000
C431        C  0.22153283  0.98637020  0.63727387    -0.25300
C432        C  0.25865526  0.98715894  0.66688777     0.27400
H433        H  0.21801821  0.06432396  0.74205134     0.13100
N434        N  0.14376920  0.06991885  0.69253335    -0.82600
H435        H  0.22279822  0.96402628  0.60837624     0.18000
N436        N  0.29762524  0.95930979  0.65837194    -0.81200
H437        H  0.15460234  0.10342828  0.69365075     0.33600
H438        H  0.13140941  0.06135876  0.72447712     0.38100
H439        H  0.29318262  0.94025524  0.62899084     0.33600
H440        H  0.32504857  0.98066069  0.65240634     0.30300
H441        H  0.32946098  0.12190475  0.73829673     0.33600
H442        H  0.31766516  0.09111120  0.69234155     0.30300
H443        H  0.31703599  0.92069756  0.83330045     0.38100
H444        H  0.35727806  0.90842203  0.79445780     0.33600
C445        C  0.80940891  0.97073288  0.35686421    -0.20100
C446        C  0.81475606  0.95371072  0.31236198     0.36100
C447        C  0.77904389  0.95815484  0.28121570    -0.26100
C448        C  0.73784020  0.97809407  0.29365965     0.02500
C449        C  0.73162316  0.99326641  0.33821369     0.27300
C450        C  0.76734043  0.98953837  0.36926148    -0.25200
N451        N  0.85666988  0.93334167  0.29829131    -0.82600
H452        H  0.78334012  0.94615534  0.24692084     0.13100
C453        C  0.70138575  0.98311756  0.25963100     0.02500
N454        N  0.68917592  0.01298865  0.35153097    -0.81200
H455        H  0.76253708  0.00248955  0.40312537     0.18000
C456        C  0.66554021  0.95237167  0.25925031    -0.26000
C457        C  0.63062862  0.95546744  0.22708635     0.36000
C458        C  0.63178887  0.99018677  0.19410520    -0.20000
C459        C  0.66749438  0.02164026  0.19566248    -0.25300
C460        C  0.70211763  0.01847767  0.22801478     0.27400
H461        H  0.66508353  0.92552995  0.28403192     0.13100
N462        N  0.59491719  0.92266985  0.22731809    -0.82600
H463        H  0.66902952  0.04848228  0.17095353     0.18000
N464        N  0.73841903  0.05064957  0.22852580    -0.81200
H465        H  0.60056942  0.89823680  0.25206738     0.33600
H466        H  0.56512076  0.93940043  0.23656936     0.38100
H467        H  0.73432404  0.07433039  0.20272659     0.33600
H468        H  0.73635615  0.06843660  0.25892795     0.30300
H469        H  0.68983235  0.02214091  0.38559490     0.33600
H470        H  0.68501357  0.04278987  0.33318039     0.30300
H471        H  0.85993586  0.90288296  0.31574492     0.38100
H472        H  0.85566916  0.92495648  0.26404299     0.33600
C473        C  0.01164031  0.82977563  0.33143716    -0.20100
C474        C  0.05172932  0.80354442  0.32975873     0.36100
C475        C  0.05608370  0.76952312  0.29697908    -0.26100
C476        C  0.02148500  0.76146752  0.26593319     0.02500
C477        C  0.98214701  0.78822401  0.26657319     0.27300
C478        C  0.97762182  0.82218100  0.29924701    -0.25200
N479        N  0.08778775  0.81139277  0.36123491    -0.82600
H480        H  0.08627337  0.74875685  0.29593721     0.13100
C481        C  0.02562521  0.72347455  0.23408718     0.02500
N482        N  0.94661934  0.78007268  0.23456207    -0.81200
H483        H  0.94678619  0.84196908  0.30028400     0.18000
C484        C  0.00262321  0.68352025  0.24374323    -0.26000
C485        C  0.00210536  0.64785503  0.21281456     0.36000
C486        C  0.02490941  0.65222168  0.17091020    -0.20000
C487        C  0.04979503  0.69181568  0.16243132    -0.25300
C488        C  0.05021265  0.72755919  0.19361178     0.27400
H489        H  0.98401978  0.68040737  0.27516503     0.13100
N490        N  0.97729735  0.60789730  0.22389018    -0.82600
H491        H  0.06769914  0.69568496  0.13073289     0.18000
N492        N  0.07464763  0.76830185  0.18402207    -0.81200
H493        H  0.99050551  0.59466833  0.25378771     0.33600
H494        H  0.94359983  0.61694935  0.22984707     0.38100
H495        H  0.09123675  0.76582829  0.15290863     0.33600
H496        H  0.05102778  0.79439132  0.18094643     0.30300
H497        H  0.91963694  0.80230138  0.23991140     0.33600
H498        H  0.95945586  0.78716437  0.20243455     0.30300
H499        H  0.10061022  0.84357484  0.35485251     0.38100
H500        H  0.11442093  0.78875853  0.35574894     0.33600
C501        C  0.97633318  0.34323071  0.82173146    -0.20100
C502        C  0.99392674  0.34687396  0.77738398     0.36100
C503        C  0.99200573  0.30945748  0.74836810    -0.26100
C504        C  0.97189384  0.26886263  0.76198219     0.02500
C505        C  0.95253810  0.26572051  0.80534355     0.27300
C506        C  0.95507749  0.30275146  0.83472051    -0.25200
N507        N  0.01432042  0.38807847  0.76201643    -0.82600
H508        H  0.00695500  0.31171686  0.71502077     0.13100
C509        C  0.97258862  0.22971634  0.73069976     0.02500
N510        N  0.93075776  0.22479037  0.81951961    -0.81200
H511        H  0.94123891  0.29937151  0.86842631     0.18000
C512        C  0.99216147  0.18893245  0.74471224    -0.26000
C513        C  0.99632483  0.15228712  0.71500816     0.36000
C514        C  0.98127216  0.15646019  0.66999410    -0.20000
C515        C  0.96038532  0.19697746  0.65655754    -0.25300
C516        C  0.95566980  0.23343895  0.68643749     0.27400
H517        H  0.00517758  0.18577126  0.77871585     0.13100
N518        N  0.01584290  0.11102543  0.73086912    -0.82600
H519        H  0.94838767  0.20072556  0.62225912     0.18000
N520        N  0.93403950  0.27439099  0.67194613    -0.81200
H521        H  0.99651255  0.09964733  0.75816647     0.33600
H522        H  0.04844072  0.11791776  0.74255780     0.38100
H523        H  0.92374923  0.27183131  0.63832276     0.33600
H524        H  0.90466889  0.27848631  0.69127083     0.30300
H525        H  0.91866237  0.22780114  0.85256525     0.33600
H526        H  0.90250230  0.22005183  0.79891774     0.30300
H527        H  0.98880763  0.41251638  0.76069955     0.38100
H528        H  0.02661729  0.38454796  0.72909235     0.33600
loop_ 
_geom_bond_atom_site_label_1 
_geom_bond_atom_site_label_2 
_geom_bond_distance 
_geom_bond_site_symmetry_2 
_ccdc_geom_bond_type 
O1           Mg3   2.144   1_545  S
O1           Mg9   2.157       .  S
O1           C36   1.236       .  S
C2           O15   1.234       .  S
C2           O39   1.269       .  A
C2           H41   1.081       .  S
Mg3          O32   2.171       .  S
Mg3          O47   2.320       .  S
Mg3          O43   2.262       .  S
Mg3          O14   2.296   1_655  S
O4          Mg46   2.167       .  S
O4          Mg29   2.147   1_455  S
O4           C25   1.236       .  S
O5           C36   1.270       .  A
O5          Mg29   2.297       .  S
C6            O8   1.273       .  A
C6           O20   1.271       .  A
C6          C389   1.485       .  S
O7           C35   1.269       .  A
O7           Mg9   2.293   1_565  S
O8          Mg40   2.290       .  S
Mg9          O15   2.145       .  S
Mg9          O23   2.260       .  S
Mg9          O11   2.287       .  S
C10          O48   1.270   1_545  A
C10          O16   1.277       .  A
C10         C430   1.497       .  S
O11          C18   1.272       .  A
H12          C25   1.081       .  S
C13          O27   1.237       .  S
C13          O28   1.273       .  A
C13          H38   1.081       .  S
O14          C37   1.268       .  A
O15         Mg29   2.156       .  S
O16         Mg46   2.328       .  S
C17          O30   1.274   1_655  A
C17          O22   1.276       .  A
C17         C514   1.488       .  S
C18          O45   1.274       .  A
C18         C361   1.495       .  S
Mg19         O26   2.138       .  S
Mg19         O27   2.148       .  S
Mg19         O20   2.275       .  S
Mg19         O21   2.293   1_565  S
Mg19         O48   2.249       .  S
O21          C25   1.269       .  A
O22         Mg29   2.297       .  S
O23          C42   1.272   1_545  A
O24          C44   1.276       .  A
O24         Mg40   2.303       .  S
O26         Mg40   2.143       .  S
O26          C37   1.234       .  S
O27         Mg46   2.148   1_565  S
O28         Mg40   2.311       .  S
Mg29         O45   2.276       .  S
O30         Mg46   2.269       .  S
H31          C36   1.081       .  S
O32         Mg40   2.151   1_655  S
O32          C35   1.235       .  S
H33          C35   1.081       .  S
H34          C37   1.081       .  S
O39         Mg46   2.298   1_655  S
C42          O47   1.277       .  A
C42         C445   1.497       .  S
O43          C44   1.274   1_655  A
C44         C473   1.485       .  S
O49         Mg51   2.155   1_455  S
O49         Mg57   2.153       .  S
O49          C84   1.235       .  S
C50          O63   1.234       .  S
C50          O87   1.269       .  A
C50          H89   1.081       .  S
Mg51         O80   2.155       .  S
Mg51         O95   2.285       .  S
Mg51         O91   2.266       .  S
Mg51         O62   2.288   1_556  S
O52         Mg94   2.158       .  S
O52         Mg77   2.134   1_554  S
O52          C73   1.236       .  S
O53          C84   1.270       .  A
O53         Mg77   2.304       .  S
C54          O56   1.273       .  A
C54          O68   1.274       .  A
C54         C346   1.489       .  S
O55          C83   1.271       .  A
O55         Mg57   2.301   1_655  S
O56         Mg88   2.276       .  S
Mg57         O63   2.150       .  S
Mg57         O71   2.265       .  S
Mg57         O59   2.306       .  S
C58          O96   1.268   1_455  A
C58          O64   1.275       .  A
C58         C486   1.489       .  S
O59          C66   1.276       .  A
H60          C73   1.081       .  S
C61          O75   1.235       .  S
C61          O76   1.269       .  A
C61          H86   1.081       .  S
O62          C85   1.267       .  A
O63         Mg77   2.157       .  S
O64         Mg94   2.303       .  S
C65          O78   1.273   1_556  A
C65          O70   1.278       .  A
C65         C290   1.490       .  S
C66          O93   1.271       .  A
C66         C318   1.490       .  S
Mg67         O74   2.132       .  S
Mg67         O75   2.157       .  S
Mg67         O68   2.285       .  S
Mg67         O69   2.294   1_655  S
Mg67         O96   2.239       .  S
O69          C73   1.269       .  A
O70         Mg77   2.322       .  S
O71          C90   1.272   1_455  A
O72          C92   1.279       .  A
O72         Mg88   2.328       .  S
O74         Mg88   2.160       .  S
O74          C85   1.234       .  S
O75         Mg94   2.150   1_655  S
O76         Mg88   2.299       .  S
Mg77         O93   2.250       .  S
O78         Mg94   2.266       .  S
H79          C84   1.081       .  S
O80         Mg88   2.143   1_556  S
O80          C83   1.236       .  S
H81          C83   1.081       .  S
H82          C85   1.081       .  S
O87         Mg94   2.298   1_556  S
C90          O95   1.273       .  A
C90         C501   1.490       .  S
O91          C92   1.272   1_556  A
C92         C249   1.499       .  S
O97         Mg99   2.129       .  S
O97        Mg105   2.150       .  S
O97         C132   1.234       .  S
C98         O111   1.237       .  S
C98         O135   1.272       .  A
C98         H137   1.081       .  S
Mg99        O128   2.150       .  S
Mg99        O143   2.281       .  S
Mg99        O139   2.241       .  S
Mg99        O110   2.294       .  S
O100       Mg142   2.152       .  S
O100       Mg125   2.156       .  S
O100        C121   1.235       .  S
O101        C132   1.267       .  A
O101       Mg125   2.290       .  S
C102        O104   1.272       .  A
C102        O116   1.278       .  A
C102        C234   1.496       .  S
O103        C131   1.270       .  A
O103       Mg105   2.304       .  S
O104       Mg136   2.250       .  S
Mg105       O111   2.159       .  S
Mg105       O119   2.299       .  S
Mg105       O107   2.336       .  S
C106        O144   1.273       .  A
C106        O112   1.277       .  A
C106        C374   1.489       .  S
O107        C114   1.279       .  A
H108        C121   1.081       .  S
C109        O123   1.234       .  S
C109        O124   1.268       .  A
C109        H134   1.081       .  S
O110        C133   1.270       .  A
O111       Mg125   2.162       .  S
O112       Mg142   2.315       .  S
C113        O126   1.270       .  A
C113        O118   1.273       .  A
C113        C333   1.490       .  S
C114        O141   1.272       .  A
C114        C193   1.496       .  S
Mg115       O122   2.137       .  S
Mg115       O123   2.157       .  S
Mg115       O116   2.332       .  S
Mg115       O117   2.303       .  S
Mg115       O144   2.263       .  S
O117        C121   1.270       .  A
O118       Mg125   2.289       .  S
O119        C138   1.277       .  A
O120        C140   1.272       .  A
O120       Mg136   2.289       .  S
O122       Mg136   2.157       .  S
O122        C133   1.237       .  S
O123       Mg142   2.137       .  S
O124       Mg136   2.292       .  S
Mg125       O141   2.253       .  S
O126       Mg142   2.261       .  S
H127        C132   1.081       .  S
O128       Mg136   2.150       .  S
O128        C131   1.235       .  S
H129        C131   1.081       .  S
H130        C133   1.081       .  S
O135       Mg142   2.308       .  S
C138        O143   1.273       .  A
C138        C402   1.496       .  S
O139        C140   1.269       .  A
C140        C305   1.478       .  S
O145       Mg147   2.149   1_565  S
O145       Mg153   2.147       .  S
O145        C180   1.235       .  S
C146        O159   1.236       .  S
C146        O183   1.270       .  A
C146        H185   1.081       .  S
Mg147       O176   2.166       .  S
Mg147       O191   2.304       .  S
Mg147       O187   2.257       .  S
Mg147       O158   2.299   1_554  S
O148       Mg190   2.158       .  S
O148       Mg173   2.151   1_556  S
O148        C169   1.235       .  S
O149        C180   1.270       .  A
O149       Mg173   2.303       .  S
C150        O152   1.276       .  A
C150        O164   1.276       .  A
C150        C221   1.490       .  S
O151        C179   1.272       .  A
O151       Mg153   2.308   1_545  S
O152       Mg184   2.299       .  S
Mg153       O159   2.154       .  S
Mg153       O167   2.284       .  S
Mg153       O155   2.300       .  S
C154        O192   1.275       .  A
C154        O160   1.274   1_545  A
C154        C417   1.488       .  S
O155        C162   1.275       .  A
H156        C169   1.081       .  S
C157        O171   1.236       .  S
C157        O172   1.271       .  A
C157        H182   1.081       .  S
O158        C181   1.269       .  A
O159       Mg173   2.161       .  S
O160       Mg190   2.296       .  S
C161        O174   1.273       .  A
C161        O166   1.277   1_556  A
C161        C277   1.492       .  S
C162        O189   1.275       .  A
C162        C206   1.485       .  S
Mg163       O170   2.161       .  S
Mg163       O171   2.158       .  S
Mg163       O164   2.300       .  S
Mg163       O165   2.299   1_545  S
Mg163       O192   2.295       .  S
O165        C169   1.270       .  A
O166       Mg173   2.318       .  S
O167        C186   1.272       .  A
O168        C188   1.280   1_556  A
O168       Mg184   2.336       .  S
O170       Mg184   2.164       .  S
O170        C181   1.234       .  S
O171       Mg190   2.163   1_545  S
O172       Mg184   2.308       .  S
Mg173       O189   2.283       .  S
O174       Mg190   2.277       .  S
H175        C180   1.081       .  S
O176       Mg184   2.167   1_554  S
O176        C179   1.237       .  S
H177        C179   1.081       .  S
H178        C181   1.081       .  S
O183       Mg190   2.299   1_554  S
C186        O191   1.275   1_565  A
C186        C458   1.500       .  S
O187        C188   1.270       .  A
C188        C262   1.493       .  S
C193        C194   1.414       .  A
C193        C198   1.411       .  A
C194        C195   1.407       .  A
C194        N199   1.432       .  S
C195        H200   1.084       .  S
C195        C196   1.405       .  A
C196        C201   1.492       .  S
C196        C197   1.410       .  A
C197        C198   1.406       .  A
C197        N202   1.438       .  S
C198        H203   1.083       .  S
N199        H219   1.046       .  S
N199        H220   1.045       .  S
C201        C204   1.405       .  A
C201        C208   1.412       .  A
N202        H217   1.046       .  S
N202        H218   1.045       .  S
C204        H209   1.084       .  S
C204        C205   1.404       .  A
C205        C206   1.411       .  A
C205        N210   1.433       .  S
C206        C207   1.405       .  A
C207        H211   1.084       .  S
C207        C208   1.408       .  A
C208        N212   1.437       .  S
N210        H213   1.046       .  S
N210        H214   1.045       .  S
N212        H215   1.045       .  S
N212        H216   1.046       .  S
C221        C222   1.413       .  A
C221        C226   1.407       .  A
C222        C223   1.412       .  A
C222        N227   1.437       .  S
C223        H228   1.083       .  S
C223        C224   1.407       .  A
C224        C229   1.493       .  S
C224        C225   1.410       .  A
C225        C226   1.404       .  A
C225        N230   1.438       .  S
C226        H231   1.084       .  S
N227        H247   1.046       .  S
N227        H248   1.046       .  S
C229        C232   1.406       .  A
C229        C236   1.410       .  A
N230        H245   1.045       .  S
N230        H246   1.046       .  S
C232        H237   1.084       .  S
C232        C233   1.407       .  A
C233        C234   1.414       .  A
C233        N238   1.432       .  S
C234        C235   1.410       .  A
C235        H239   1.083       .  S
C235        C236   1.406       .  A
C236        N240   1.438       .  S
N238        H241   1.046       .  S
N238        H242   1.046       .  S
N240        H243   1.045       .  S
N240        H244   1.046       .  S
C249        C250   1.418   1_554  A
C249        C254   1.411       .  A
C250        C251   1.404   1_556  A
C250        N255   1.433       .  S
C251        H256   1.084   1_554  S
C251        C252   1.400       .  A
C252        C257   1.488       .  S
C252        C253   1.410       .  A
C253        C254   1.411       .  A
C253        N258   1.438       .  S
C254        H259   1.083       .  S
N255        H275   1.045       .  S
N255        H276   1.046       .  S
C257        C260   1.401       .  A
C257        C264   1.410   1_554  A
N258        H273   1.045       .  S
N258        H274   1.046       .  S
C260        H265   1.084       .  S
C260        C261   1.411       .  A
C261        C262   1.421       .  A
C261        N266   1.439       .  S
C262        C263   1.405   1_554  A
C263        H267   1.083       .  S
C263        C264   1.407       .  A
C264        N268   1.438       .  S
N266        H269   1.046       .  S
N266        H270   1.046       .  S
N268        H271   1.045       .  S
N268        H272   1.046       .  S
C277        C278   1.416   1_556  A
C277        C282   1.410       .  A
C278        C279   1.408       .  A
C278        N283   1.438       .  S
C279        H284   1.084       .  S
C279        C280   1.402   1_554  A
C280        C285   1.485       .  S
C280        C281   1.407       .  A
C281        C282   1.409       .  A
C281        N286   1.438       .  S
C282        H287   1.083       .  S
N283        H303   1.046       .  S
N283        H304   1.045       .  S
C285        C288   1.401       .  A
C285        C292   1.408       .  A
N286        H301   1.046       .  S
N286        H302   1.046       .  S
C288        H293   1.084       .  S
C288        C289   1.410       .  A
C289        C290   1.416       .  A
C289        N294   1.437       .  S
C290        C291   1.408       .  A
C291        H295   1.084       .  S
C291        C292   1.407       .  A
C292        N296   1.438       .  S
N294        H297   1.046       .  S
N294        H298   1.045       .  S
N296        H299   1.046       .  S
N296        H300   1.045       .  S
C305        C306   1.414       .  A
C305        C310   1.406       .  A
C306        C307   1.406       .  A
C306        N311   1.438       .  S
C307        H312   1.084       .  S
C307        C308   1.400       .  A
C308        C313   1.473       .  S
C308        C309   1.406       .  A
C309        C310   1.400       .  A
C309        N314   1.438       .  S
C310        H315   1.084       .  S
N311        H331   1.045       .  S
N311        H332   1.046       .  S
C313        C316   1.398       .  A
C313        C320   1.405       .  A
N314        H329   1.046       .  S
N314        H330   1.045       .  S
C316        H321   1.084       .  S
C316        C317   1.402       .  A
C317        C318   1.419       .  A
C317        N322   1.438       .  S
C318        C319   1.411       .  A
C319        H323   1.083       .  S
C319        C320   1.405       .  A
C320        N324   1.438       .  S
N322        H325   1.046       .  S
N322        H326   1.045       .  S
N324        H327   1.045       .  S
N324        H328   1.046       .  S
C333        C334   1.416       .  A
C333        C338   1.410       .  A
C334        C335   1.403       .  A
C334        N339   1.433       .  S
C335        H340   1.084       .  S
C335        C336   1.401       .  A
C336        C341   1.481       .  S
C336        C337   1.407       .  A
C337        C338   1.405       .  A
C337        N342   1.438       .  S
C338        H343   1.083       .  S
N339        H359   1.046       .  S
N339        H360   1.045       .  S
C341        C344   1.402       .  A
C341        C348   1.406       .  A
N342        H357   1.046       .  S
N342        H358   1.046       .  S
C344        H349   1.084       .  S
C344        C345   1.407       .  A
C345        C346   1.416       .  A
C345        N350   1.438       .  S
C346        C347   1.410       .  A
C347        H351   1.083       .  S
C347        C348   1.403       .  A
C348        N352   1.438       .  S
N350        H353   1.046       .  S
N350        H354   1.045       .  S
N352        H355   1.046       .  S
N352        H356   1.045       .  S
C361        C362   1.423       .  A
C361        C366   1.408       .  A
C362        C363   1.407       .  A
C362        N367   1.438       .  S
C363        H368   1.084       .  S
C363        C364   1.398       .  A
C364        C369   1.480       .  S
C364        C365   1.407       .  A
C365        C366   1.405       .  A
C365        N370   1.438       .  S
C366        H371   1.083       .  S
N367        H387   1.046       .  S
N367        H388   1.045       .  S
C369        C372   1.400       .  A
C369        C376   1.407       .  A
N370        H385   1.046       .  S
N370        H386   1.046       .  S
C372        H377   1.084       .  S
C372        C373   1.405       .  A
C373        C374   1.418       .  A
C373        N378   1.438       .  S
C374        C375   1.409       .  A
C375        H379   1.084       .  S
C375        C376   1.407       .  A
C376        N380   1.437       .  S
N378        H381   1.046       .  S
N378        H382   1.045       .  S
N380        H383   1.046       .  S
N380        H384   1.046       .  S
C389        C390   1.412       .  A
C389        C394   1.408       .  A
C390        C391   1.411       .  A
C390        N395   1.437       .  S
C391        H396   1.084       .  S
C391        C392   1.406       .  A
C392        C397   1.484       .  S
C392        C393   1.406       .  A
C393        C394   1.401       .  A
C393        N398   1.438       .  S
C394        H399   1.084       .  S
N395        H415   1.045       .  S
N395        H416   1.046       .  S
C397        C400   1.403       .  A
C397        C404   1.405       .  A
N398        H413   1.046       .  S
N398        H414   1.045       .  S
C400        H405   1.084       .  S
C400        C401   1.408       .  A
C401        C402   1.417       .  A
C401        N406   1.437       .  S
C402        C403   1.413       .  A
C403        H407   1.083       .  S
C403        C404   1.405       .  A
C404        N408   1.438       .  S
N406        H409   1.046       .  S
N406        H410   1.045       .  S
N408        H411   1.045       .  S
N408        H412   1.046       .  S
C417        C418   1.412   1_545  A
C417        C422   1.407       .  A
C418        C419   1.404       .  A
C418        N423   1.433       .  S
C419        H424   1.084       .  S
C419        C420   1.403   1_565  A
C420        C425   1.490       .  S
C420        C421   1.411       .  A
C421        C422   1.410       .  A
C421        N426   1.437       .  S
C422        H427   1.083       .  S
N423        H443   1.045       .  S
N423        H444   1.046       .  S
C425        C428   1.403       .  A
C425        C432   1.409   1_545  A
N426        H441   1.045       .  S
N426        H442   1.046       .  S
C428        H433   1.084       .  S
C428        C429   1.406       .  A
C429        C430   1.415       .  A
C429        N434   1.432       .  S
C430        C431   1.411   1_545  A
C431        H435   1.083       .  S
C431        C432   1.407       .  A
C432        N436   1.438       .  S
N434        H437   1.046       .  S
N434        H438   1.045       .  S
N436        H439   1.047       .  S
N436        H440   1.045       .  S
C445        C446   1.420       .  A
C445        C450   1.410       .  A
C446        C447   1.410       .  A
C446        N451   1.438       .  S
C447        H452   1.084       .  S
C447        C448   1.401       .  A
C448        C453   1.485       .  S
C448        C449   1.406       .  A
C449        C450   1.407       .  A
C449        N454   1.438   1_565  S
C450        H455   1.083   1_565  S
N451        H471   1.046       .  S
N451        H472   1.045       .  S
C453        C456   1.400       .  A
C453        C460   1.407   1_565  A
N454        H469   1.045       .  S
N454        H470   1.046       .  S
C456        H461   1.084       .  S
C456        C457   1.410       .  A
C457        C458   1.421       .  A
C457        N462   1.437       .  S
C458        C459   1.411   1_565  A
C459        H463   1.083       .  S
C459        C460   1.408       .  A
C460        N464   1.438       .  S
N462        H465   1.045       .  S
N462        H466   1.046       .  S
N464        H467   1.046       .  S
N464        H468   1.045       .  S
C473        C474   1.417       .  A
C473        C478   1.407   1_455  A
C474        C475   1.406       .  A
C474        N479   1.438       .  S
C475        H480   1.084       .  S
C475        C476   1.399       .  A
C476        C481   1.474       .  S
C476        C477   1.407   1_455  A
C477        C478   1.403       .  A
C477        N482   1.438       .  S
C478        H483   1.084       .  S
N479        H499   1.045       .  S
N479        H500   1.046       .  S
C481        C484   1.397       .  A
C481        C488   1.406       .  A
N482        H497   1.046       .  S
N482        H498   1.046       .  S
C484        H489   1.084   1_455  S
C484        C485   1.400       .  A
C485        C486   1.417       .  A
C485        N490   1.433   1_455  S
C486        C487   1.410       .  A
C487        H491   1.083       .  S
C487        C488   1.406       .  A
C488        N492   1.438       .  S
N490        H493   1.046       .  S
N490        H494   1.046       .  S
N492        H495   1.046       .  S
N492        H496   1.046       .  S
C501        C502   1.416       .  A
C501        C506   1.410       .  A
C502        C503   1.405       .  A
C502        N507   1.438   1_655  S
C503        H508   1.084   1_655  S
C503        C504   1.403       .  A
C504        C509   1.486       .  S
C504        C505   1.408       .  A
C505        C506   1.404       .  A
C505        N510   1.438       .  S
C506        H511   1.083       .  S
N507        H527   1.046   1_455  S
N507        H528   1.045       .  S
C509        C512   1.404       .  A
C509        C516   1.410       .  A
N510        H525   1.045       .  S
N510        H526   1.046       .  S
C512        H517   1.084   1_655  S
C512        C513   1.403       .  A
C513        C514   1.413       .  A
C513        N518   1.432   1_655  S
C514        C515   1.408       .  A
C515        H519   1.083       .  S
C515        C516   1.404       .  A
C516        N520   1.438       .  S
N518        H521   1.046   1_455  S
N518        H522   1.046       .  S
N520        H523   1.045       .  S
N520        H524   1.046       .  S
