geometry optimzed in LAMMPS
_audit_creation_date              2020-11-30 
_audit_creation_method            'lammps2cif' 
_symmetry_space_group_name_H-M    'P1' 
_symmetry_Int_Tables_number       1 
_symmetry_cell_setting            triclinic 
loop_ 
_symmetry_equiv_pos_as_xyz 
  x,y,z 
_cell_length_a                    30.69787788392803 
_cell_length_b                    30.935559853194118 
_cell_length_c                    46.03136828121141 
_cell_angle_alpha                 89.83153157253147 
_cell_angle_beta                  90.66756304529844 
_cell_angle_gamma                 119.76202952397622 
loop_ 
_atom_site_label 
_atom_site_type_symbol 
_atom_site_fract_x 
_atom_site_fract_y 
_atom_site_fract_z 
_atom_site_charge 
O1          O  0.47092976  0.00345106  0.31948878    -0.80380
O2          O  0.53272760  0.94411343  0.21649410    -0.80400
O3          O  0.41757747  0.91630265  0.23382855    -0.80410
O4          O  0.54119152  0.93941568  0.28079023    -0.80350
O5          O  0.46338632  0.96231903  0.19833085    -0.80480
O6          O  0.55259360  0.99584454  0.31474750    -0.80400
O7          O  0.60798924  0.96782952  0.23396382    -0.80380
O8          O  0.42224902  0.93687581  0.29302520    -0.80420
C9          C  0.43520934  0.95920755  0.31737321     1.09310
C10         C  0.57402279  0.94319221  0.21518694     1.09190
C11         C  0.42546693  0.92359462  0.20701293     1.09330
C12         C  0.54674953  0.95347692  0.30725119     1.09210
O13         O  0.59888963  0.08694177  0.28036230    -0.80380
O14         O  0.51288741  0.06355009  0.21491885    -0.80460
O15         O  0.42965892  0.02986990  0.28021323    -0.80390
O16         O  0.60482165  0.05213333  0.22255017    -0.80370
O17         O  0.55779103  0.02414651  0.18300538    -0.80430
O18         O  0.50848852  0.08809452  0.28328326    -0.80390
O19         O  0.62355389  0.03332899  0.27813663    -0.80350
O20         O  0.43170369  0.01446554  0.22102137    -0.80420
Co21       Co  0.53256945  0.04307264  0.29700140     1.51530
Co22       Co  0.52583440  0.00741797  0.21901436     1.51690
Co23       Co  0.43061173  0.97551570  0.25707673     1.51570
Co24       Co  0.56700951  0.99214015  0.25096691     1.51470
O25         O  0.50730768  0.00215855  0.26030574    -1.42320
C26         C  0.63001009  0.07383245  0.28833109     1.09240
C27         C  0.46800928  0.05065534  0.20798726     1.09330
C28         C  0.46283733  0.07248681  0.28924377     1.09260
C29         C  0.59919361  0.05397305  0.19487766     1.09240
O30         O  0.94519004  0.50977351  0.30261739    -0.80380
O31         O  0.93654172  0.42771637  0.21080209    -0.80400
O32         O  0.97182926  0.57562470  0.24208210    -0.80410
O33         O  0.97085719  0.39088480  0.26879801    -0.80350
O34         O  0.95288434  0.52023547  0.20661957    -0.80480
O35         O  0.95929821  0.43188819  0.30479709    -0.80400
O36         O  0.96914039  0.38835833  0.23289631    -0.80380
O37         O  0.97474210  0.57798020  0.27703353    -0.80420
C38         C  0.94863313  0.55132923  0.29834429     1.09310
C39         C  0.94268637  0.39072986  0.21194113     1.09190
C40         C  0.94719939  0.55369625  0.21881763     1.09330
C41         C  0.95015702  0.39148136  0.29283494     1.09210
O42         O  0.06755715  0.50090322  0.30375813    -0.80380
O43         O  0.06026485  0.55388251  0.20258237    -0.80460
O44         O  0.06939005  0.63805929  0.27074811    -0.80390
O45         O  0.06333136  0.41925047  0.23560262    -0.80370
O46         O  0.04380506  0.46073860  0.20396274    -0.80430
O47         O  0.05372903  0.57978450  0.30340200    -0.80390
O48         O  0.04643939  0.42943006  0.28601428    -0.80350
O49         O  0.04434055  0.60713494  0.22178099    -0.80420
Co50       Co  0.00528764  0.50402252  0.29987263     1.51530
Co51       Co  0.99777389  0.49141886  0.20973307     1.51690
Co52       Co  0.03136951  0.57054443  0.25852709     1.51570
Co53       Co  0.02895708  0.45187023  0.24985945     1.51470
O54         O  0.99784737  0.49580393  0.25486134    -1.42320
C55         C  0.06470729  0.45941045  0.30657286     1.09240
C56         C  0.05892039  0.59336797  0.20052363     1.09330
C57         C  0.07635695  0.62595758  0.29574519     1.09260
C58         C  0.06617230  0.43610568  0.21033930     1.09240
O59         O  0.48722674  0.41210224  0.28564559    -0.80380
O60         O  0.59214524  0.49418904  0.22110042    -0.80400
O61         O  0.42501092  0.38656027  0.22475663    -0.80410
O62         O  0.63706639  0.57793953  0.28311104    -0.80350
O63         O  0.50236008  0.41414809  0.21664029    -0.80480
O64         O  0.58458509  0.49851416  0.29366297    -0.80400
O65         O  0.63186042  0.57086930  0.23060033    -0.80380
O66         O  0.40686062  0.37356128  0.27631582    -0.80420
C67         C  0.44313753  0.37708006  0.29199295     1.09310
C68         C  0.62812124  0.53605619  0.21511598     1.09190
C69         C  0.45760771  0.38441579  0.20989219     1.09330
C70         C  0.62590612  0.54006127  0.29881289     1.09210
O71         O  0.53395632  0.55224314  0.30896479    -0.80380
O72         O  0.46188689  0.47425201  0.19360847    -0.80460
O73         O  0.38516664  0.41142465  0.27767642    -0.80390
O74         O  0.58070486  0.60304836  0.23586572    -0.80370
O75         O  0.55229617  0.55525631  0.19603307    -0.80430
O76         O  0.44234602  0.47977996  0.29812613    -0.80390
O77         O  0.57435728  0.60626490  0.27554312    -0.80350
O78         O  0.40693010  0.45410507  0.22957821    -0.80420
Co79       Co  0.51154691  0.48580338  0.29219264     1.51530
Co80       Co  0.52672821  0.48489460  0.20858821     1.51690
Co81       Co  0.44798657  0.43766259  0.25627207     1.51570
Co82       Co  0.57832062  0.54793170  0.26062598     1.51470
O83         O  0.50964440  0.50209559  0.24720678    -1.42320
C84         C  0.55901877  0.59694447  0.30141255     1.09240
C85         C  0.41930111  0.46479602  0.20305405     1.09330
C86         C  0.39689689  0.44430013  0.29708116     1.09260
C87         C  0.56944695  0.59735750  0.20866120     1.09240
C88         C  0.88291182  0.59617303  0.40414967     0.42210
N89         N  0.84344325  0.57270288  0.44427036     0.01100
C90         C  0.78594726  0.71704527  0.03376643    -0.06770
H91         H  0.96470892  0.72338907  0.05753478     0.06600
C92         C  0.85467751  0.54434255  0.09116656    -0.07120
Co93       Co  0.83991865  0.65859601  0.47118143     0.74180
N94         N  0.90633390  0.69387585  0.02457622    -0.26300
Co95       Co  0.83817448  0.65268865  0.04715094     0.74070
C96         C  0.88377642  0.58635918  0.11084130     0.42320
N97         N  0.81026180  0.48828592  0.01773879     0.00720
N98         N  0.86508600  0.61235057  0.07126131     0.00830
N99         N  0.78824741  0.71935102  0.48475625    -0.47150
H100        H  0.91117593  0.67839703  0.41410074     0.06580
N101        N  0.90748649  0.69637219  0.49581926     0.01110
N102        N  0.77029227  0.60811990  0.06804591     0.00850
C103        C  0.71315090  0.57914038  0.10048709     0.42460
N104        N  0.81030462  0.49172388  0.48914460    -0.25760
C105        C  0.75386560  0.63131606  0.42539485    -0.06680
N106        N  0.85191580  0.55597245  0.41976558    -0.46860
N107        N  0.75114997  0.62167230  0.08953452    -0.47090
C108        C  0.71635489  0.58433210  0.41152414     0.42230
N109        N  0.80920748  0.69390813  0.49548215     0.01100
N110        N  0.71270604  0.48593994  0.48993636    -0.25780
N111        N  0.86685216  0.62194292  0.44542626    -0.26270
N112        N  0.71186377  0.48300339  0.01842328     0.00740
H113        H  0.65664219  0.44708909  0.45651338     0.06630
H114        H  0.69079325  0.49849172  0.08875116     0.06660
N115        N  0.80829375  0.69171442  0.02413123    -0.26320
N116        N  0.84315083  0.56341200  0.06809805    -0.25930
N117        N  0.74927176  0.56831361  0.44823108     0.01100
C118        C  0.98540877  0.73855513  0.00916776     0.42500
C119        C  0.82533221  0.46164020  0.47767088    -0.07190
N120        N  0.74839228  0.55917801  0.06536047    -0.25930
H121        H  0.83710498  0.50499562  0.09572266     0.06650
N122        N  0.95405490  0.72251052  0.48575161    -0.47160
H123        H  0.82523120  0.45400910  0.45474711     0.06630
C124        C  0.63621137  0.43063090  0.00475610     0.42330
C125        C  0.89404900  0.64012513  0.42122515    -0.06680
Co126      Co  0.77926190  0.52978208  0.46815653     0.73820
N127        N  0.82317741  0.45523055  0.02664777    -0.46870
C128        C  0.77264070  0.73541011  0.00754639     0.42600
N129        N  0.71556974  0.54765114  0.42743310    -0.46860
Co130      Co  0.77868745  0.52313598  0.04238525     0.73890
C131        C  0.71127633  0.53797235  0.08422524    -0.07190
C132        C  0.95371544  0.71947549  0.03486068    -0.06750
N133        N  0.77294267  0.61743313  0.44758423    -0.26280
N134        N  0.88899324  0.62723522  0.09675760    -0.47040
H135        H  0.77938919  0.72166403  0.05628687     0.06610
C136        C  0.66672597  0.45432878  0.47928783    -0.07170
Cl137      Cl  0.80954347  0.59113114  0.00728118    -0.50170
C138        C  0.83399620  0.43744667  0.00248970     0.42360
H139        H  0.76887405  0.66921239  0.41811466     0.06570
N140        N  0.66692334  0.44987059  0.02827062    -0.46880
C141        C  0.71744284  0.12792027  0.40418808     0.42210
N142        N  0.75143880  0.17836770  0.44026623     0.01100
C143        C  0.95109040  0.21951813  0.02996222    -0.06770
H144        H  0.77559029  0.05156368  0.05205350     0.06600
C145        C  0.71310314  0.17090850  0.07781279    -0.07120
Co146      Co  0.83941565  0.17276138  0.46488856     0.74180
N147        N  0.80512826  0.10776947  0.01853187    -0.26300
Co148      Co  0.83678848  0.17523041  0.04110307     0.74070
C149        C  0.71325777  0.13139314  0.09473146     0.42320
N150        N  0.71610794  0.22618194  0.01299825     0.00720
N151        N  0.76960566  0.15490664  0.06205854     0.00830
N152        N  0.95342687  0.21911031  0.48086064    -0.47150
H153        H  0.76973078  0.09500656  0.41170252     0.06580
N154        N  0.80551140  0.10562328  0.48987865     0.01110
N155        N  0.86606843  0.24149032  0.06457340     0.00850
C156        C  0.89081398  0.28895970  0.10191449     0.42460
N157        N  0.71576165  0.22478381  0.48442816    -0.25760
C158        C  0.89824420  0.24958539  0.41546399    -0.06680
N159        N  0.71846858  0.16617108  0.41875531    -0.46860
N160        N  0.89279493  0.25092633  0.08899479    -0.47090
C161        C  0.89254891  0.28841618  0.40006325     0.42230
N162        N  0.90640239  0.19906890  0.49023005     0.01100
N163        N  0.81413143  0.31451254  0.48469150    -0.25780
N164        N  0.77341595  0.15084049  0.44068760    -0.26270
N165        N  0.81445425  0.31556892  0.01335563     0.00740
H166        H  0.82637238  0.37000674  0.45245442     0.06630
H167        H  0.84437684  0.32543078  0.08920973     0.06660
N168        N  0.90431251  0.19924497  0.01896733    -0.26320
N169        N  0.74953906  0.18371609  0.05891998    -0.25930
N170        N  0.84828720  0.26672054  0.43926858     0.01100
C171        C  0.76663140  0.02843093  0.00399652     0.42500
C172        C  0.66955925  0.21296213  0.47489991    -0.07190
N173        N  0.84561660  0.27015856  0.06162146    -0.25930
H174        H  0.69500459  0.19260138  0.08190598     0.06650
N175        N  0.78262996  0.05866763  0.48028523    -0.47160
H176        H  0.65834189  0.21154176  0.45240160     0.06630
C177        C  0.83556053  0.39051020  0.00111136     0.42330
C178        C  0.75423105  0.11775681  0.41882439    -0.06680
Co179      Co  0.78251258  0.24629074  0.46217846     0.73820
N180        N  0.67245032  0.21639794  0.02397580    -0.46870
C181        C  0.98368191  0.23265385  0.00481572     0.42600
N182        N  0.86090820  0.29633830  0.41636989    -0.46860
Co183      Co  0.78187502  0.24926062  0.03647415     0.73890
C184        C  0.86032348  0.30222102  0.08380016    -0.07190
C185        C  0.78167132  0.06120224  0.02928074    -0.06750
N186        N  0.86923840  0.23820852  0.43927794    -0.26280
N187        N  0.74970785  0.12353389  0.08405530    -0.47040
H188        H  0.96112019  0.22588788  0.05277656     0.06610
C189        C  0.82763793  0.36040173  0.47493993    -0.07170
Cl190      Cl  0.81083795  0.21120265  0.00098139    -0.50170
C191        C  0.64087119  0.20707747  0.00131386     0.42360
H192        H  0.91426417  0.22772785  0.40752761     0.06570
N193        N  0.82598868  0.35984287  0.02399234    -0.46880
C194        C  0.31559146  0.88172028  0.41859306     0.42210
N195        N  0.27250133  0.82257918  0.44759613     0.01100
C196        C  0.07493972  0.78151517  0.03406765    -0.06770
H197        H  0.25564833  0.95181311  0.05551191     0.06600
C198        C  0.31266274  0.82289122  0.08351742    -0.07120
Co199      Co  0.18466177  0.82701579  0.47027813     0.74180
N200        N  0.22213291  0.89275077  0.02345047    -0.26300
Co201      Co  0.18991025  0.82442341  0.04576988     0.74070
C202        C  0.31610871  0.86343361  0.10058757     0.42320
N203        N  0.30938861  0.77248912  0.01818451     0.00720
N204        N  0.25747796  0.84218183  0.06822625     0.00830
N205        N  0.07110358  0.78044223  0.48499968    -0.47150
H206        H  0.26439000  0.91582208  0.42390163     0.06580
N207        N  0.21879574  0.89328778  0.49481043     0.01110
N208        N  0.15847199  0.75572140  0.06575490     0.00850
C209        C  0.11515467  0.69409362  0.09325654     0.42460
N210        N  0.30888004  0.77532502  0.48969883    -0.25760
C211        C  0.12525100  0.74923809  0.42123497    -0.06680
N212        N  0.31111091  0.83987270  0.43006971    -0.46860
N213        N  0.12150106  0.73836231  0.08455565    -0.47090
C214        C  0.13095587  0.70963444  0.40716176     0.42230
N215        N  0.11840323  0.80103397  0.49465208     0.01100
N216        N  0.21123454  0.68550673  0.48809182    -0.25780
N217        N  0.25055323  0.85003724  0.44773147    -0.26270
N218        N  0.21109066  0.68274361  0.01658952     0.00740
H219        H  0.19889112  0.63252927  0.45432093     0.06630
H220        H  0.16242318  0.65751353  0.08294094     0.06660
N221        N  0.12153539  0.80175589  0.02333502    -0.26320
N222        N  0.27577324  0.81196744  0.06470895    -0.25930
N223        N  0.17589625  0.73375837  0.44604488     0.01100
C224        C  0.25970073  0.97094416  0.00674729     0.42500
C225        C  0.35480117  0.78892153  0.47985761    -0.07190
N226        N  0.17789245  0.72633140  0.06280784    -0.25930
H227        H  0.32975905  0.80005194  0.08719041     0.06650
N228        N  0.24096269  0.93911571  0.48402609    -0.47160
H229        H  0.36527942  0.79195200  0.45727537     0.06630
C230        C  0.18985216  0.60881134  0.00222717     0.42330
C231        C  0.27514784  0.88847309  0.42967633    -0.06680
Co232      Co  0.24201357  0.75427164  0.46767543     0.73820
N233        N  0.35379127  0.78302860  0.02891917    -0.46870
C234        C  0.04143866  0.76729720  0.00876475     0.42600
N235        N  0.16232309  0.70241305  0.42421525    -0.46860
Co236      Co  0.24332343  0.74806243  0.04079907     0.73890
C237        C  0.15254125  0.68612142  0.07914782    -0.07190
C238        C  0.24714887  0.94024569  0.03303501    -0.06750
N239        N  0.15492841  0.76205932  0.44509933    -0.26280
N240        N  0.27965315  0.87292642  0.09064016    -0.47040
H241        H  0.06543202  0.77521223  0.05681462     0.06610
C242        C  0.19763585  0.64050041  0.47701426    -0.07170
Cl243      Cl  0.21493100  0.78849703  0.00612790    -0.50170
C244        C  0.38447373  0.79437706  0.00597600     0.42360
H245        H  0.10841577  0.77015307  0.41261896     0.06570
N246        N  0.19967245  0.63782158  0.02601991    -0.46880
C247        C  0.43290392  0.79612531  0.00713055     0.42210
N248        N  0.48860461  0.77816233  0.49386436     0.01100
C249        C  0.64571992  0.74786150  0.09073916    -0.06770
H250        H  0.67582314  0.90655864  0.09444641     0.06600
C251        C  0.71999944  0.94012886  0.47831162    -0.07120
Co252      Co  0.53515235  0.75502331  0.04379008     0.74180
N253        N  0.62212287  0.84972418  0.06604536    -0.26300
Co254      Co  0.66497371  0.82773678  0.04206863     0.74070
C255        C  0.73833708  0.97262121  0.00370687     0.42320
N256        N  0.61235704  0.84920417  0.44458790     0.00720
N257        N  0.69893411  0.89530725  0.01756353     0.00830
N258        N  0.56188790  0.70061518  0.08702193    -0.47150
H259        H  0.44782213  0.78894121  0.05555349     0.06580
N260        N  0.57272725  0.82170527  0.06695755     0.01110
N261        N  0.70422384  0.80100906  0.01748746     0.00850
C262        C  0.74560206  0.76431831  0.00528279     0.42460
N263        N  0.56330092  0.82139138  0.44749075    -0.25760
C264        C  0.46325282  0.64248236  0.03004789    -0.06680
N265        N  0.45403164  0.78813128  0.48376369    -0.46860
N266        N  0.72955907  0.77982481  0.02812872    -0.47090
C267        C  0.43914107  0.61332149  0.00382990     0.42230
N268        N  0.57986467  0.73276868  0.06552362     0.01100
N269        N  0.57089098  0.73479709  0.44297108    -0.25780
N270        N  0.49075757  0.77820395  0.02242625    -0.26270
N271        N  0.62041716  0.76149240  0.44145981     0.00740
H272        H  0.51391059  0.68786007  0.41200659     0.06630
H273        H  0.73066802  0.77006343  0.45653955     0.06660
N274        N  0.62915773  0.76153283  0.06697703    -0.26320
N275        N  0.69626823  0.89347851  0.48889616    -0.25930
N276        N  0.49529182  0.68760198  0.49178763     0.01100
C277        C  0.59115965  0.87253442  0.10266997     0.42500
C278        C  0.53995608  0.83634753  0.42909655    -0.07190
N279        N  0.70183989  0.80006587  0.48870045    -0.25930
H280        H  0.72347759  0.95001396  0.45556073     0.06650
N281        N  0.55298024  0.83357556  0.08883670    -0.47160
H282        H  0.50003594  0.81619503  0.42463858     0.06630
C283        C  0.59686637  0.72278894  0.40079813     0.42330
C284        C  0.45691194  0.78929685  0.03289058    -0.06680
Co285      Co  0.52949016  0.75501594  0.46925311     0.73820
N286        N  0.62395549  0.88236410  0.42340482    -0.46870
C287        C  0.60033610  0.70729949  0.10426897     0.42600
N288        N  0.46062674  0.64403873  0.48103119    -0.46860
Co289      Co  0.65898717  0.82652936  0.46585871     0.73890
C290        C  0.72719990  0.77773953  0.47904281    -0.07190
C291        C  0.63719808  0.88312898  0.08763051    -0.06750
N292        N  0.49693129  0.68795769  0.02047282    -0.26280
N293        N  0.72378828  0.94216015  0.02733857    -0.47040
H294        H  0.68339894  0.76828038  0.09961890     0.06610
C295        C  0.55299530  0.70796066  0.41858229    -0.07170
Cl296      Cl  0.59725677  0.79080540  0.00524467    -0.50170
C297        C  0.57973836  0.87698199  0.41328957     0.42360
H298        H  0.45260687  0.63292723  0.05247278     0.06570
N299        N  0.63750198  0.75460509  0.41655251    -0.46880
C300        C  0.11571427  0.40463877  0.41421415     0.42210
N301        N  0.17549499  0.42622427  0.44485192     0.01100
C302        C  0.23911308  0.28117808  0.02967638    -0.06770
H303        H  0.06222177  0.27531388  0.05383328     0.06600
C304        C  0.16666365  0.45372834  0.08295299    -0.07120
Co305      Co  0.18262458  0.33979258  0.46750175     0.74180
N306        N  0.11928355  0.30401051  0.02086044    -0.26300
Co307      Co  0.18832838  0.34595724  0.04304496     0.74070
C308        C  0.13189074  0.41077134  0.09995818     0.42320
N309        N  0.21640607  0.51120611  0.01538089     0.00720
N310        N  0.16123279  0.38642841  0.06538488     0.00830
N311        N  0.23476524  0.27824966  0.48057457    -0.47150
H312        H  0.09096628  0.32149975  0.41915003     0.06580
N313        N  0.11686936  0.30141317  0.49217184     0.01110
N314        N  0.25723159  0.39128179  0.06419285     0.00850
C315        C  0.31796529  0.42314410  0.09518339     0.42460
N316        N  0.21538500  0.50896832  0.48684086    -0.25760
C317        C  0.26664045  0.36635655  0.42149307    -0.06680
N318        N  0.15493072  0.44403451  0.42670753    -0.46860
N319        N  0.27875855  0.37944753  0.08562050    -0.47090
C320        C  0.30508554  0.41288749  0.40827940     0.42230
N321        N  0.21517186  0.30466310  0.49126650     0.01100
N322        N  0.31238448  0.51303715  0.48644825    -0.25780
N323        N  0.15264134  0.37711590  0.44472863    -0.26270
N324        N  0.31391930  0.51528410  0.01499861     0.00740
H325        H  0.36783231  0.55356041  0.45373963     0.06630
H326        H  0.33727051  0.50241756  0.08275287     0.06660
N327        N  0.21730540  0.30708430  0.01996594    -0.26320
N328        N  0.18369357  0.43533472  0.06269698    -0.25930
N329        N  0.27108182  0.42996236  0.44353389     0.01100
C330        C  0.03958725  0.25991541  0.00544012     0.42500
C331        C  0.19984810  0.53953071  0.47634073    -0.07190
N332        N  0.27862489  0.43994339  0.06087339    -0.25930
H333        H  0.18215137  0.49294508  0.08755639     0.06650
N334        N  0.06993580  0.27568057  0.48206354    -0.47160
H335        H  0.19845353  0.54784491  0.45362203     0.06630
C336        C  0.38927757  0.56785062  0.00232622     0.42330
C337        C  0.11433531  0.35995273  0.42565105    -0.06680
Co338      Co  0.24371015  0.46958308  0.46517813     0.73820
N339        N  0.20360707  0.54346350  0.02542121    -0.46870
C340        C  0.25062021  0.26204762  0.00351562     0.42600
N341        N  0.30500203  0.45011555  0.42313421    -0.46860
Co342      Co  0.24797698  0.47557198  0.03859015     0.73890
C343        C  0.31729521  0.46270179  0.07883423    -0.07190
C344        C  0.07231475  0.27874603  0.03116925    -0.06750
N345        N  0.24755587  0.38080637  0.44311165    -0.26280
N346        N  0.13059321  0.37032368  0.08786849    -0.47040
H347        H  0.24594225  0.27625271  0.05222197     0.06610
C348        C  0.35825888  0.54508159  0.47634872    -0.07170
Cl349      Cl  0.21569122  0.40764135  0.00360822    -0.50170
C350        C  0.19182155  0.56224703  0.00197211     0.42360
H351        H  0.25180651  0.32841335  0.41409214     0.06570
N352        N  0.35893604  0.54790216  0.02541166    -0.46880
C353        C  0.59226457  0.20545034  0.00354570     0.42210
N354        N  0.53422539  0.22163344  0.49153001     0.01100
C355        C  0.37352217  0.25323996  0.08302850    -0.06770
H356        H  0.34877984  0.09413328  0.09323457     0.06600
C357        C  0.30407599  0.05635677  0.47780006    -0.07120
Co358      Co  0.48870717  0.24412088  0.04234466     0.74180
N359        N  0.40209675  0.15019640  0.06446466    -0.26300
Co360      Co  0.35882946  0.17101225  0.03935361     0.74070
C361        C  0.28776402  0.02614169  0.00427002     0.42320
N362        N  0.40908520  0.15155680  0.44084906     0.00720
N363        N  0.32625943  0.10397718  0.01577927     0.00830
N364        N  0.45793622  0.30136435  0.08325693    -0.47150
H365        H  0.57997359  0.21178803  0.05237229     0.06580
N366        N  0.45158383  0.17792252  0.06544512     0.01110
N367        N  0.31773689  0.19563672  0.01455200     0.00850
C368        C  0.27599150  0.23184077  0.00169548     0.42460
N369        N  0.45829751  0.17992209  0.44346578    -0.25760
C370        C  0.56106574  0.35568416  0.03057313    -0.06680
N371        N  0.56894748  0.21291809  0.48075984    -0.46860
N372        N  0.29266630  0.21696331  0.02483008    -0.47090
C373        C  0.58582120  0.38560357  0.00508210     0.42230
N374        N  0.44265711  0.26606873  0.06325364     0.01100
N375        N  0.44877059  0.26673974  0.44317946    -0.25780
N376        N  0.53358234  0.22132711  0.02021621    -0.26270
N377        N  0.39947021  0.23801002  0.44077114     0.00740
H378        H  0.50353471  0.32418250  0.41595984     0.06630
H379        H  0.29003601  0.22564237  0.45320667     0.06660
N380        N  0.39332585  0.23728238  0.06274929    -0.26320
N381        N  0.32766323  0.10401097  0.48707815    -0.25930
N382        N  0.52801608  0.31239271  0.49138896     0.01100
C383        C  0.43343553  0.12969043  0.10203697     0.42500
C384        C  0.48042809  0.17006524  0.42168400    -0.07190
N385        N  0.31929346  0.19603750  0.48589125    -0.25930
H386        H  0.29911665  0.04436416  0.45536361     0.06650
N387        N  0.47172481  0.16708295  0.08788176    -0.47160
H388        H  0.52007107  0.19125985  0.41729561     0.06630
C389        C  0.41972147  0.28769777  0.40480080     0.42330
C390        C  0.56911159  0.21124917  0.02987978    -0.06680
Co391      Co  0.49239743  0.24543003  0.46758873     0.73820
N392        N  0.39631039  0.12457253  0.41660700    -0.46870
C393        C  0.41643978  0.29621958  0.09624813     0.42600
N394        N  0.56368816  0.35605971  0.48160960    -0.46860
Co395      Co  0.36270801  0.17149204  0.46358037     0.73890
C396        C  0.29360812  0.21795919  0.47577682    -0.07190
C397        C  0.38718313  0.11788117  0.08661681    -0.06750
N398        N  0.52653598  0.31109230  0.02001581    -0.26280
N399        N  0.30293337  0.05834199  0.02687675    -0.47040
H400        H  0.33462774  0.23435318  0.08947380     0.06610
C401        C  0.46471866  0.30010973  0.42172519    -0.07170
Cl402      Cl  0.42575812  0.20796415  0.00318588    -0.50170
C403        C  0.43943940  0.13464149  0.40315026     0.42360
H404        H  0.57194584  0.36385177  0.05320248     0.06570
N405        N  0.38073192  0.24863682  0.41751686    -0.46880
C406        C  0.44408837  0.35985472  0.18114937    -0.00400
C407        C  0.45804373  0.39025202  0.15634767    -0.12270
C408        C  0.44500840  0.36981011  0.12853638     0.01840
C409        C  0.41891528  0.31795213  0.12499530    -0.00490
C410        C  0.40265983  0.28717773  0.14965128    -0.12210
C411        C  0.41518078  0.30785383  0.17774141     0.01720
H412        H  0.48026914  0.43023747  0.15840984     0.14700
H413        H  0.38245399  0.24706460  0.14694048     0.14700
C414        C  0.40144216  0.27528156  0.20257920     0.36350
C415        C  0.45814488  0.40268711  0.10382795     0.36260
N416        N  0.39111820  0.24935971  0.22255829    -0.43990
N417        N  0.46787228  0.42877418  0.08396678    -0.43990
C418        C  0.41951620  0.30682363  0.37562464    -0.00400
C419        C  0.44054803  0.35798735  0.37335025    -0.12270
C420        C  0.44748306  0.38058815  0.34644811     0.01840
C421        C  0.43391486  0.35204992  0.32056615    -0.00490
C422        C  0.41122954  0.30000436  0.32272848    -0.12210
C423        C  0.40433059  0.27715556  0.35017061     0.01720
H424        H  0.45197061  0.38067428  0.39294507     0.14700
H425        H  0.40035712  0.27752980  0.30312376     0.14700
C426        C  0.38476661  0.22408119  0.35161028     0.36350
C427        C  0.46649820  0.43318282  0.34707641     0.36260
N428        N  0.36938151  0.18156266  0.35276910    -0.43990
N429        N  0.48021850  0.47504129  0.34988765    -0.43990
C430        C  0.65326687  0.54585629  0.18662987    -0.00400
C431        C  0.69547972  0.59256867  0.18122758    -0.12270
C432        C  0.71540082  0.60585371  0.15319961     0.01840
C433        C  0.69151720  0.57252281  0.12978252    -0.00490
C434        C  0.64904964  0.52640563  0.13529657    -0.12210
C435        C  0.63166440  0.51179525  0.16331527     0.01720
H436        H  0.71352084  0.61831965  0.19907897     0.14700
H437        H  0.63050050  0.50009102  0.11769154     0.14700
C438        C  0.59410592  0.46029262  0.16713969     0.36350
C439        C  0.76134710  0.65249967  0.14960607     0.36260
N440        N  0.56569314  0.41830039  0.16950160    -0.43990
N441        N  0.79845194  0.68975256  0.14695761    -0.43990
C442        C  0.65776694  0.54610386  0.32448272    -0.00400
C443        C  0.69850389  0.59396792  0.33020122    -0.12270
C444        C  0.71919061  0.60787419  0.35807695     0.01840
C445        C  0.69831086  0.57357866  0.38107168    -0.00490
C446        C  0.66209586  0.52395230  0.37442326    -0.12210
C447        C  0.64249620  0.50963191  0.34638873     0.01720
H448        H  0.71280459  0.62173431  0.31314668     0.14700
H449        H  0.64747378  0.49616251  0.39146789     0.14700
C450        C  0.60342747  0.45859239  0.34190418     0.36350
C451        C  0.76284646  0.65648512  0.36157708     0.36260
N452        N  0.57202408  0.41769311  0.33862806    -0.43990
N453        N  0.79836068  0.69534080  0.36365869    -0.43990
C454        C  0.59257231  0.68658285  0.13449790    -0.00400
C455        C  0.63394907  0.69708266  0.15268745    -0.12270
C456        C  0.62713426  0.67410331  0.18008075     0.01840
C457        C  0.57848087  0.63915640  0.18933197    -0.00490
C458        C  0.53736392  0.63283170  0.17273311    -0.12210
C459        C  0.54358423  0.65599768  0.14580989     0.01720
H460        H  0.67167451  0.72199244  0.14525672     0.14700
H461        H  0.49982940  0.60658577  0.17999777     0.14700
C462        C  0.49818228  0.64565312  0.13032816     0.36350
C463        C  0.67045032  0.68602861  0.19805798     0.36260
N464        N  0.46148639  0.63720566  0.11826005    -0.43990
N465        N  0.70516264  0.69653999  0.21274968    -0.43990
C466        C  0.57548471  0.63443228  0.32534213    -0.00400
C467        C  0.58060488  0.68184024  0.32149678    -0.12270
C468        C  0.59045795  0.71363893  0.34569527     0.01840
C469        C  0.59751817  0.69865517  0.37360732    -0.00490
C470        C  0.59648265  0.65389148  0.37688422    -0.12210
C471        C  0.58453031  0.62146622  0.35371554     0.01720
H472        H  0.57425902  0.69282625  0.30018819     0.14700
H473        H  0.60152092  0.64250208  0.39847046     0.14700
C474        C  0.57867173  0.57397054  0.36169926     0.36350
C475        C  0.59159082  0.76040536  0.34166980     0.36260
N476        N  0.57337728  0.53704089  0.37107867    -0.43990
N477        N  0.59256057  0.79795206  0.33832930    -0.43990
C478        C  0.38375174  0.46035914  0.18020202    -0.00400
C479        C  0.40572073  0.49264728  0.15672551    -0.12270
C480        C  0.38779765  0.47785493  0.12868702     0.01840
C481        C  0.34237467  0.43297277  0.12393746    -0.00490
C482        C  0.31729570  0.40245710  0.14771915    -0.12210
C483        C  0.33829823  0.41534000  0.17578788     0.01720
H484        H  0.44143280  0.52655351  0.15976840     0.14700
H485        H  0.28191918  0.36837489  0.14434760     0.14700
C486        C  0.31478309  0.38029350  0.19911021     0.36350
C487        C  0.41931464  0.50765667  0.10512453     0.36260
N488        N  0.29606306  0.35219543  0.21782722    -0.43990
N489        N  0.44476810  0.53141074  0.08634391    -0.43990
C490        C  0.36339288  0.43838830  0.32151272    -0.00400
C491        C  0.38205272  0.47708351  0.34203821    -0.12270
C492        C  0.36565603  0.46839471  0.37060197     0.01840
C493        C  0.32603966  0.42114364  0.37871672    -0.00490
C494        C  0.30357734  0.38364796  0.35748103    -0.12210
C495        C  0.32195655  0.39174931  0.32904253     0.01720
H496        H  0.41347635  0.51328702  0.33663686     0.14700
H497        H  0.27193181  0.34780097  0.36305910     0.14700
C498        C  0.29846564  0.35109646  0.30853178     0.36350
C499        C  0.39346191  0.50779573  0.39145175     0.36260
N500        N  0.27935882  0.31845722  0.29213393    -0.43990
N501        N  0.41652641  0.53944854  0.40793147    -0.43990
C502        C  0.89135121  0.58372628  0.14307867    -0.00400
C503        C  0.93272260  0.62326663  0.15725388    -0.12270
C504        C  0.94612248  0.61825544  0.18602931     0.01840
C505        C  0.91919823  0.57224044  0.20080176    -0.00490
C506        C  0.87367615  0.53604005  0.18829609    -0.12210
C507        C  0.85907195  0.54171284  0.16011580     0.01720
H508        H  0.95646900  0.65704760  0.14530167     0.14700
H509        H  0.85166502  0.50099325  0.19953406     0.14700
C510        C  0.81066257  0.50353134  0.14961181     0.36350
C511        C  0.99043105  0.65937133  0.19878165     0.36260
N512        N  0.77154127  0.47287598  0.14156294    -0.43990
N513        N  0.02584614  0.69272809  0.20886886    -0.43990
C514        C  0.89941009  0.59395463  0.37456723    -0.00400
C515        C  0.94901255  0.60595013  0.37201715    -0.12270
C516        C  0.96441671  0.59053759  0.34784312     0.01840
C517        C  0.93330920  0.57229318  0.32256769    -0.00490
C518        C  0.88396886  0.56354906  0.32430792    -0.12210
C519        C  0.86612428  0.57181913  0.35066769     0.01720
H520        H  0.97355802  0.61990086  0.39100981     0.14700
H521        H  0.85827696  0.54599135  0.30617498     0.14700
C522        C  0.81314481  0.55373213  0.35336316     0.36350
C523        C  0.00558736  0.58201475  0.35372226     0.36260
N524        N  0.77037642  0.53789502  0.35540323    -0.43990
N525        N  0.03675408  0.57375658  0.36131430    -0.43990
C526        C  0.90953960  0.30951713  0.13106455    -0.00400
C527        C  0.94340235  0.35996864  0.13200132    -0.12270
C528        C  0.95507567  0.38631149  0.15790039     0.01840
C529        C  0.93362343  0.36168003  0.18461011    -0.00490
C530        C  0.90130271  0.31001890  0.18392125    -0.12210
C531        C  0.88836604  0.28400860  0.15722658     0.01720
H532        H  0.95939358  0.37957552  0.11183011     0.14700
H533        H  0.88402178  0.29057950  0.20384750     0.14700
C534        C  0.85024259  0.23251070  0.15705501     0.36350
C535        C  0.99059719  0.43843434  0.15495223     0.36260
N536        N  0.81908304  0.19127464  0.15744899    -0.43990
N537        N  0.02123876  0.47904230  0.15034492    -0.43990
C538        C  0.92379301  0.34723980  0.31197136    -0.00400
C539        C  0.95306787  0.32849589  0.32465033    -0.12270
C540        C  0.94311642  0.30768411  0.35281948     0.01840
C541        C  0.90226635  0.30408981  0.36872572    -0.00490
C542        C  0.87020322  0.31821898  0.35467677    -0.12210
C543        C  0.88063415  0.33961969  0.32687294     0.01720
H544        H  0.98733692  0.33549228  0.31405852     0.14700
H545        H  0.83784805  0.31478199  0.36598051     0.14700
C546        C  0.84913416  0.35808669  0.31515404     0.36350
C547        C  0.97839167  0.29516071  0.36579568     0.36260
N548        N  0.82408977  0.37313254  0.30580487    -0.43990
N549        N  0.00697407  0.28537187  0.37608648    -0.43990
C550        C  0.11800676  0.41314030  0.13038583    -0.00400
C551        C  0.14828306  0.45657034  0.14671571    -0.12270
C552        C  0.13448403  0.46274183  0.17450197     0.01840
C553        C  0.09032408  0.42471080  0.18670711    -0.00490
C554        C  0.06198722  0.37975338  0.17154087    -0.12210
C555        C  0.07531308  0.37373593  0.14343142     0.01720
H556        H  0.18232500  0.48655083  0.13764124     0.14700
H557        H  0.02727280  0.35083700  0.18073838     0.14700
C558        C  0.04252534  0.32850091  0.12773011     0.36350
C559        C  0.16488988  0.50931970  0.18962377     0.36260
N560        N  0.01611517  0.29229143  0.11513586    -0.43990
N561        N  0.18922616  0.54657997  0.20178556    -0.43990
C562        C  0.07644951  0.44383975  0.33416151    -0.00100
C563        C  0.11074920  0.42646008  0.33441615    -0.12270
C564        C  0.12215990  0.41044947  0.36032527     0.01840
C565        C  0.09747360  0.41017093  0.38601835    -0.00490
C566        C  0.06208871  0.42584109  0.38558985    -0.12210
C567        C  0.05122372  0.44259117  0.35992893     0.01720
H568        H  0.12967130  0.42685094  0.31457557     0.14700
H569        H  0.04390948  0.42626698  0.40559190     0.14700
C570        C  0.01264209  0.45618733  0.36090883     0.36350
C571        C  0.16151432  0.39770544  0.36046952     0.36260
N572        N  0.98075207  0.46565932  0.36278726    -0.43990
N573        N  0.19333149  0.38791466  0.36067547    -0.43990
C574        C  0.09665996  0.67380689  0.12162088    -0.00400
C575        C  0.05290986  0.62802634  0.12278924    -0.12270
C576        C  0.03912679  0.60145745  0.14855589     0.01840
C577        C  0.07051366  0.62086946  0.17342528    -0.00490
C578        C  0.11294494  0.66829141  0.17261371    -0.12210
C579        C  0.12642889  0.69497599  0.14672337     0.01720
H580        H  0.03027196  0.61237625  0.10325967     0.14700
H581        H  0.13622564  0.68370274  0.19192052     0.14700
C582        C  0.17209016  0.74259611  0.14595938     0.36350
C583        C  0.99202782  0.55541771  0.14828581     0.36260
N584        N  0.20864538  0.78073944  0.14524455    -0.43990
N585        N  0.95366536  0.51914635  0.14636362    -0.43990
C586        C  0.10625797  0.66292124  0.31794446    -0.00400
C587        C  0.13530409  0.65052987  0.33583492    -0.12270
C588        C  0.14316731  0.66466995  0.36487731     0.01840
C589        C  0.12489417  0.69550713  0.37601061    -0.00490
C590        C  0.10230323  0.71396952  0.35663687    -0.12210
C591        C  0.09280110  0.69779075  0.32764498     0.01720
H592        H  0.14572589  0.62374979  0.32816539     0.14700
H593        H  0.08978169  0.73899770  0.36432135     0.14700
C594        C  0.06557584  0.71403213  0.30904210     0.36350
C595        C  0.16496313  0.64161710  0.38275192     0.36260
N596        N  0.04409778  0.72731240  0.29400771    -0.43990
N597        N  0.18189083  0.62214344  0.39658451    -0.43990
C598        C  0.38879934  0.89323391  0.18450876    -0.00400
C599        C  0.40832130  0.88049925  0.16085922    -0.12270
C600        C  0.38717866  0.87459253  0.13319972     0.01840
C601        C  0.34259920  0.87704871  0.12906989    -0.00490
C602        C  0.32090897  0.88643231  0.15318384    -0.12210
C603        C  0.34399391  0.89508032  0.18075967     0.01720
H604        H  0.44395844  0.88130842  0.16334077     0.14700
H605        H  0.28643393  0.88769365  0.15044841     0.14700
C606        C  0.32327943  0.90949369  0.20435502     0.36350
C607        C  0.41528953  0.87117563  0.10916556     0.36260
N608        N  0.30680171  0.92115777  0.22329209    -0.43990
N609        N  0.43817690  0.86880760  0.09004061    -0.43990
C610        C  0.40565082  0.93695608  0.34369561    -0.00400
C611        C  0.35538232  0.89925679  0.34074177    -0.12270
C612        C  0.32443252  0.88220816  0.36495474     0.01840
C613        C  0.34406276  0.90297919  0.39244635    -0.00490
C614        C  0.39407302  0.93957117  0.39571483    -0.12210
C615        C  0.42512059  0.95692348  0.37173557     0.01720
H616        H  0.33983874  0.88405635  0.31947727     0.14700
H617        H  0.40912282  0.95397993  0.41721312     0.14700
C618        C  0.47695305  0.99429757  0.37703023     0.36350
C619        C  0.27289078  0.84319833  0.36123519     0.36260
N620        N  0.51845513  0.02399781  0.38134845    -0.43990
N621        N  0.23158973  0.81197014  0.35832919    -0.43990
C622        C  0.58796103  0.88935243  0.13233157    -0.00400
C623        C  0.55068926  0.85657465  0.15150807    -0.12270
C624        C  0.54746831  0.87189585  0.17975162     0.01840
C625        C  0.58293408  0.92001079  0.18953228    -0.00490
C626        C  0.62122710  0.95164926  0.17071571    -0.12210
C627        C  0.62273757  0.93757457  0.14203861     0.01720
H628        H  0.52375545  0.81921062  0.14437851     0.14700
H629        H  0.64761625  0.98858963  0.17773295     0.14700
C630        C  0.65653241  0.97448175  0.12184886     0.36350
C631        C  0.50779615  0.83770000  0.19843369     0.36260
N632        N  0.68191335  0.00241325  0.10442790    -0.43990
N633        N  0.47620088  0.81027206  0.21353459    -0.43990
C634        C  0.57109464  0.89545627  0.38538830    -0.00400
C635        C  0.60259304  0.90314573  0.36168836    -0.12270
C636        C  0.59242127  0.91701425  0.33443945     0.01840
C637        C  0.55024776  0.92333210  0.33084347    -0.00490
C638        C  0.51777906  0.91325780  0.35404342    -0.12210
C639        C  0.52801453  0.90035593  0.38121303     0.01720
H640        H  0.63503373  0.89829515  0.36442075     0.14700
H641        H  0.48550726  0.91814120  0.35124036     0.14700
C642        C  0.49483230  0.89513802  0.40466736     0.36350
C643        C  0.62662476  0.92643819  0.31089972     0.36260
N644        N  0.46801297  0.89088126  0.42331138    -0.43990
N645        N  0.65405845  0.93403658  0.29201803    -0.43990
C646        C  0.68971022  0.11661712  0.12348097    -0.00400
C647        C  0.65063296  0.12653754  0.12907348    -0.12270
C648        C  0.62683070  0.11510529  0.15557381     0.01840
C649        C  0.63906996  0.08978259  0.17642077    -0.00490
C650        C  0.68176908  0.08517252  0.17274119    -0.12210
C651        C  0.70679570  0.09748142  0.14612685     0.01720
H652        H  0.63745726  0.14255303  0.11264318     0.14700
H653        H  0.69307076  0.06834787  0.18973022     0.14700
C654        C  0.74799555  0.08804600  0.14255456     0.36350
C655        C  0.59075420  0.13092247  0.16109815     0.36260
N656        N  0.78087040  0.08018468  0.13983738    -0.43990
N657        N  0.56383553  0.14624062  0.16518342    -0.43990
C658        C  0.69758822  0.11469051  0.37387922    -0.00400
C659        C  0.68603568  0.14724400  0.35843784    -0.12270
C660        C  0.66706065  0.13678988  0.32986969     0.01840
C661        C  0.65989575  0.09319560  0.31579699    -0.00490
C662        C  0.67360119  0.06191887  0.33089820    -0.12210
C663        C  0.69086708  0.07140714  0.35972002     0.01720
H664        H  0.69136660  0.18101115  0.36876867     0.14700
H665        H  0.66791734  0.02792845  0.32081874     0.14700
C666        C  0.69774013  0.03406921  0.37464278     0.36350
C667        C  0.65469171  0.17116738  0.31581103     0.36260
N668        N  0.70288693  0.00386960  0.38655046    -0.43990
N669        N  0.64470392  0.19873683  0.30463299    -0.43990
C670        C  0.43875784  0.10945636  0.12984523    -0.00400
C671        C  0.44205438  0.06645527  0.12867787    -0.12270
C672        C  0.45395435  0.04834957  0.15341507     0.01840
C673        C  0.45753907  0.07052715  0.18105012    -0.00490
C674        C  0.45304301  0.11347624  0.18228771    -0.12210
C675        C  0.44586798  0.13424735  0.15666796     0.01720
H676        H  0.43913468  0.04904684  0.10772737     0.14700
H677        H  0.45775093  0.13213090  0.20295279     0.14700
C678        C  0.44946781  0.18242213  0.15808159     0.36350
C679        C  0.46880315  0.01188643  0.14777330     0.36260
N680        N  0.45387619  0.22172994  0.15923433    -0.43990
N681        N  0.48198756  0.98454220  0.14042321    -0.43990
C682        C  0.44988803  0.09460833  0.31433059    -0.00400
C683        C  0.48666746  0.14065774  0.32557057    -0.12270
C684        C  0.48273582  0.15619828  0.35355875     0.01840
C685        C  0.44243644  0.12406418  0.37178956    -0.00490
C686        C  0.40327064  0.08050235  0.35956463    -0.12210
C687        C  0.40589016  0.06607705  0.33107470     0.01720
H688        H  0.51957483  0.16407298  0.31277585     0.14700
H689        H  0.37088954  0.05670169  0.37264427     0.14700
C690        C  0.36335302  0.02056232  0.32050903     0.36350
C691        C  0.51972625  0.20614847  0.36203995     0.36260
N692        N  0.32903766  0.98415462  0.31219889    -0.43990
N693        N  0.54936880  0.24654661  0.36830333    -0.43990
O694        O  0.47094684  0.00343040  0.81948928    -0.80380
O695        O  0.53275226  0.94411524  0.71649391    -0.80400
O696        O  0.41760200  0.91629692  0.73382380    -0.80410
O697        O  0.54121844  0.93941467  0.78078597    -0.80350
O698        O  0.46340981  0.96231893  0.69832782    -0.80480
O699        O  0.55261807  0.99583880  0.81474543    -0.80400
O700        O  0.60801759  0.96783911  0.73396044    -0.80380
O701        O  0.42227000  0.93685878  0.79302195    -0.80420
C702        C  0.43522899  0.95918588  0.81737146     1.09310
C703        C  0.57404915  0.94319829  0.71518487     1.09190
C704        C  0.42549048  0.92359327  0.70700837     1.09330
C705        C  0.54677526  0.95347258  0.80724738     1.09210
O706        O  0.59890384  0.08694106  0.78036466    -0.80380
O707        O  0.51290475  0.06354663  0.71491833    -0.80460
O708        O  0.42966949  0.02985035  0.78021672    -0.80390
O709        O  0.60484202  0.05213976  0.72255081    -0.80370
O710        O  0.55781442  0.02414833  0.68300544    -0.80430
O711        O  0.50849608  0.08808219  0.78329191    -0.80390
O712        O  0.62357635  0.03333446  0.77813553    -0.80350
O713        O  0.43172145  0.01445957  0.72102237    -0.80420
Co714      Co  0.53258536  0.04306306  0.79700341     1.51530
Co715      Co  0.52585542  0.00741694  0.71901376     1.51690
Co716      Co  0.43063057  0.97550457  0.75707581     1.51570
Co717      Co  0.56703361  0.99214345  0.75096526     1.51470
O718        O  0.50732750  0.00215487  0.76030522    -1.42320
C719        C  0.63002836  0.07383568  0.78833140     1.09240
C720        C  0.46802579  0.05065012  0.70798751     1.09330
C721        C  0.46284280  0.07246661  0.78925108     1.09260
C722        C  0.59921519  0.05397811  0.69487821     1.09240
O723        O  0.94518828  0.50976824  0.80261966    -0.80380
O724        O  0.93653962  0.42771021  0.71079952    -0.80400
O725        O  0.97182292  0.57561571  0.74208237    -0.80410
O726        O  0.97085196  0.39087665  0.76879912    -0.80350
O727        O  0.95288210  0.52022936  0.70661871    -0.80480
O728        O  0.95929477  0.43188190  0.80479768    -0.80400
O729        O  0.96913582  0.38835054  0.73289449    -0.80380
O730        O  0.97473689  0.57797237  0.77703355    -0.80420
C731        C  0.94862994  0.55132310  0.79834530     1.09310
C732        C  0.94268359  0.39072330  0.71193879     1.09190
C733        C  0.94719496  0.55368848  0.71881719     1.09330
C734        C  0.95015268  0.39147439  0.79283612     1.09210
O735        O  0.06755435  0.50089609  0.80375535    -0.80380
O736        O  0.06026344  0.55387698  0.70258440    -0.80460
O737        O  0.06938416  0.63805113  0.77074773    -0.80390
O738        O  0.06332544  0.41924152  0.73560248    -0.80370
O739        O  0.04380344  0.46073315  0.70396285    -0.80430
O740        O  0.05372726  0.57977777  0.80340175    -0.80390
O741        O  0.04643385  0.42942101  0.78601386    -0.80350
O742        O  0.04433558  0.60712773  0.72178148    -0.80420
Co743      Co  0.00528505  0.50401602  0.79987248     1.51530
Co744      Co  0.99777188  0.49141295  0.70973284     1.51690
Co745      Co  0.03136357  0.57053610  0.75852714     1.51570
Co746      Co  0.02895080  0.45186119  0.74985921     1.51470
O747        O  0.99784139  0.49579552  0.75486123    -1.42320
C748        C  0.06470347  0.45940315  0.80657151     1.09240
C749        C  0.05891779  0.59336169  0.70052487     1.09330
C750        C  0.07635392  0.62595055  0.79574443     1.09260
C751        C  0.06616943  0.43609911  0.71033953     1.09240
O752        O  0.48722853  0.41210467  0.78564321    -0.80380
O753        O  0.59214648  0.49419101  0.72110180    -0.80400
O754        O  0.42501327  0.38656451  0.72475754    -0.80410
O755        O  0.63706880  0.57794300  0.78311025    -0.80350
O756        O  0.50236216  0.41414926  0.71664340    -0.80480
O757        O  0.58458660  0.49851757  0.79366242    -0.80400
O758        O  0.63186341  0.57087196  0.73060050    -0.80380
O759        O  0.40686201  0.37356534  0.77631524    -0.80420
C760        C  0.44313965  0.37708242  0.79199097     1.09310
C761        C  0.62812281  0.53605758  0.71511665     1.09190
C762        C  0.45761017  0.38441726  0.70989470     1.09330
C763        C  0.62590753  0.54006488  0.79881258     1.09210
O764        O  0.53395549  0.55224206  0.80896816    -0.80380
O765        O  0.46188716  0.47425029  0.69360822    -0.80460
O766        O  0.38516606  0.41142368  0.77767665    -0.80390
O767        O  0.58071409  0.60305115  0.73585908    -0.80370
O768        O  0.55229612  0.55525368  0.69602950    -0.80430
O769        O  0.44234536  0.47978030  0.79812564    -0.80390
O770        O  0.57435963  0.60626712  0.77554908    -0.80350
O771        O  0.40693083  0.45410976  0.72957770    -0.80420
Co772      Co  0.51154758  0.48580492  0.79219232     1.51530
Co773      Co  0.52672917  0.48489448  0.70858852     1.51690
Co774      Co  0.44798674  0.43766856  0.75627252     1.51570
Co775      Co  0.57832279  0.54793765  0.76062546     1.51470
O776        O  0.50964640  0.50209985  0.74720643    -1.42320
C777        C  0.55901963  0.59694406  0.80141785     1.09240
C778        C  0.41930185  0.46479706  0.70305329     1.09330
C779        C  0.39689620  0.44429983  0.79708119     1.09260
C780        C  0.56945185  0.59735699  0.70865541     1.09240
C781        C  0.88291098  0.59617378  0.90414911     0.42210
N782        N  0.84344377  0.57270477  0.94427025     0.01100
C783        C  0.78594164  0.71704262  0.53376353    -0.06770
H784        H  0.96470197  0.72338552  0.55753731     0.06600
C785        C  0.85467427  0.54433989  0.59116605    -0.07120
Co786      Co  0.83992022  0.65859854  0.97118154     0.74180
N787        N  0.90632923  0.69387331  0.52457740    -0.26300
Co788      Co  0.83816902  0.65268577  0.54715077     0.74070
C789        C  0.88377186  0.58635585  0.61084136     0.42320
N790        N  0.81026032  0.48828390  0.51773870     0.00720
N791        N  0.86508048  0.61234796  0.57126196     0.00830
N792        N  0.78824957  0.71935405  0.98475907    -0.47150
H793        H  0.91117528  0.67839813  0.91409945     0.06580
N794        N  0.90748939  0.69637462  0.99581807     0.01110
N795        N  0.77028623  0.60811621  0.56804464     0.00850
C796        C  0.71314500  0.57913615  0.60048591     0.42460
N797        N  0.81030551  0.49172545  0.98914466    -0.25760
C798        C  0.75386624  0.63131887  0.92539575    -0.06680
N799        N  0.85191572  0.55597368  0.91976556    -0.46860
N800        N  0.75114319  0.62166824  0.58953298    -0.47090
C801        C  0.71635569  0.58433504  0.91152480     0.42230
N802        N  0.80921048  0.69391110  0.99548368     0.01100
N803        N  0.71270775  0.48594304  0.98993693    -0.25780
N804        N  0.86685238  0.62194485  0.94542563    -0.26270
N805        N  0.71186207  0.48300062  0.51842272     0.00740
H806        H  0.65664429  0.44709311  0.95651368     0.06630
H807        H  0.69078955  0.49848778  0.58875069     0.06660
N808        N  0.80828877  0.69171148  0.52412970    -0.26320
N809        N  0.84314693  0.56340965  0.56809801    -0.25930
N810        N  0.74927269  0.56831625  0.94823164     0.01100
C811        C  0.98540492  0.73855211  0.50917078     0.42500
C812        C  0.82533185  0.46164067  0.97767100    -0.07190
N813        N  0.74838762  0.55917436  0.56535963    -0.25930
H814        H  0.83710294  0.50499281  0.59572148     0.06650
N815        N  0.95405710  0.72251313  0.98574934    -0.47160
H816        H  0.82522996  0.45400880  0.95474728     0.06630
C817        C  0.63620981  0.43062784  0.50475603     0.42330
C818        C  0.89404843  0.64012641  0.92122418    -0.06680
Co819      Co  0.77926305  0.52978447  0.96815684     0.73820
N820        N  0.82317657  0.45522892  0.52664760    -0.46870
C821        C  0.77263692  0.73540736  0.50754256     0.42600
N822        N  0.71557073  0.54765396  0.92743358    -0.46860
Co823      Co  0.77868462  0.52313331  0.54238487     0.73890
C824        C  0.71127164  0.53796831  0.58422442    -0.07190
C825        C  0.95371003  0.71947251  0.53486297    -0.06750
N826        N  0.77294337  0.61743578  0.94758505    -0.26280
N827        N  0.88898732  0.62723209  0.59675843    -0.47040
H828        H  0.77938214  0.72166186  0.55628364     0.06610
C829        C  0.66672780  0.45433232  0.97928818    -0.07170
Cl830      Cl  0.80954071  0.59112854  0.50728095    -0.50170
C831        C  0.83399656  0.43744611  0.50248946     0.42360
H832        H  0.76887486  0.66921524  0.91811561     0.06570
N833        N  0.66692191  0.44986805  0.52827031    -0.46880
C834        C  0.71744670  0.12791919  0.90419084     0.42210
N835        N  0.75143786  0.17836535  0.94026998     0.01100
C836        C  0.95109058  0.21951553  0.52995798    -0.06770
H837        H  0.77559060  0.05156189  0.55204718     0.06600
C838        C  0.71310485  0.17090573  0.57780903    -0.07120
Co839      Co  0.83941465  0.17276060  0.96489347     0.74180
N840        N  0.80512898  0.10776858  0.51852610    -0.26300
Co841      Co  0.83678943  0.17522859  0.54109822     0.74070
C842        C  0.71326037  0.13139035  0.59472731     0.42320
N843        N  0.71611007  0.22618165  0.51299561     0.00720
N844        N  0.76960683  0.15490420  0.56205353     0.00830
N845        N  0.95342533  0.21911077  0.98086487    -0.47150
H846        H  0.76973517  0.09500693  0.91170740     0.06580
N847        N  0.80551084  0.10562334  0.98988445     0.01110
N848        N  0.86606963  0.24148764  0.56456968     0.00850
C849        C  0.89081455  0.28895537  0.60191156     0.42460
N850        N  0.71576000  0.22478303  0.98443081    -0.25760
C851        C  0.89824241  0.24958276  0.91546763    -0.06680
N852        N  0.71847012  0.16616922  0.91875772    -0.46860
N853        N  0.89279565  0.25092250  0.58899121    -0.47090
C854        C  0.89254660  0.28841280  0.90006622     0.42230
N855        N  0.90640118  0.19906933  0.99023473     0.01100
N856        N  0.81412946  0.31451175  0.98469357    -0.25780
N857        N  0.77341544  0.15083854  0.94069240    -0.26270
N858        N  0.81445610  0.31556856  0.51335358     0.00740
H859        H  0.82637074  0.37000480  0.95245558     0.06630
H860        H  0.84437771  0.32542703  0.58920751     0.06660
N861        N  0.90431316  0.19924341  0.51896264    -0.26320
N862        N  0.74954032  0.18371380  0.55891583    -0.25930
N863        N  0.84828559  0.26671856  0.93927184     0.01100
C864        C  0.76663131  0.02843055  0.50398996     0.42500
C865        C  0.66955819  0.21296222  0.97490194    -0.07190
N866        N  0.84561804  0.27015615  0.56161829    -0.25930
H867        H  0.69500685  0.19259888  0.58190298     0.06650
N868        N  0.78262994  0.05866742  0.98029154    -0.47160
H869        H  0.65834169  0.21154186  0.95240346     0.06630
C870        C  0.83556191  0.39051021  0.50111050     0.42330
C871        C  0.75423334  0.11775560  0.91882880    -0.06680
Co872      Co  0.78251098  0.24628913  0.96218148     0.73820
N873        N  0.67245244  0.21639599  0.52397381    -0.46870
C874        C  0.98368272  0.23265199  0.50481186     0.42600
N875        N  0.86090604  0.29633533  0.91637272    -0.46860
Co876      Co  0.78187676  0.24925933  0.53647110     0.73890
C877        C  0.86032450  0.30221758  0.58379750    -0.07190
C878        C  0.78167170  0.06120110  0.52927450    -0.06750
N879        N  0.86923702  0.23820675  0.93928175    -0.26280
N880        N  0.74970991  0.12353129  0.58405019    -0.47040
H881        H  0.96111965  0.22588402  0.55277246     0.06610
C882        C  0.82763612  0.36040060  0.97494128    -0.07170
Cl883      Cl  0.81083948  0.21120262  0.50097737    -0.50170
C884        C  0.64087265  0.20707553  0.50131233     0.42360
H885        H  0.91426245  0.22772507  0.90753159     0.06570
N886        N  0.82599010  0.35984198  0.52399100    -0.46880
C887        C  0.31559578  0.88170776  0.91858660     0.42210
N888        N  0.27250439  0.82257446  0.94759367     0.01100
C889        C  0.07493550  0.78150996  0.53407193    -0.06770
H890        H  0.25564868  0.95181067  0.55551591     0.06600
C891        C  0.31266449  0.82289024  0.58351762    -0.07120
Co892      Co  0.18466702  0.82701772  0.97027388     0.74180
N893        N  0.22212865  0.89274792  0.52345487    -0.26300
Co894      Co  0.18990769  0.82441978  0.54577362     0.74070
C895        C  0.31611213  0.86343322  0.60058774     0.42320
N896        N  0.30938862  0.77249023  0.51818494     0.00720
N897        N  0.25747685  0.84217891  0.56822912     0.00830
N898        N  0.07110746  0.78044561  0.98499542    -0.47150
H899        H  0.26439933  0.91581656  0.92389154     0.06580
N900        N  0.21880210  0.89329063  0.99480589     0.01110
N901        N  0.15847126  0.75571716  0.56575748     0.00850
C902        C  0.11515438  0.69408776  0.59325803     0.42460
N903        N  0.30888022  0.77532198  0.98969832    -0.25760
C904        C  0.12525556  0.74923947  0.92123138    -0.06680
N905        N  0.31111257  0.83986168  0.93006666    -0.46860
N906        N  0.12150003  0.73835649  0.58455800    -0.47090
C907        C  0.13095885  0.70963427  0.90715909     0.42230
N908        N  0.11840741  0.80103801  0.99464767     0.01100
N909        N  0.21123275  0.68550574  0.98809179    -0.25780
N910        N  0.25055916  0.85003527  0.94772692    -0.26270
N911        N  0.21109183  0.68274338  0.51658955     0.00740
H912        H  0.19888750  0.63252695  0.95432150     0.06630
H913        H  0.16242398  0.65750923  0.58294125     0.06660
N914        N  0.12153140  0.80175119  0.52333941    -0.26320
N915        N  0.27577258  0.81196511  0.56471074    -0.25930
N916        N  0.17589774  0.73375733  0.94604282     0.01100
C917        C  0.25969729  0.97094130  0.50675130     0.42500
C918        C  0.35480154  0.78891800  0.97985756    -0.07190
N919        N  0.17789249  0.72632796  0.56280956    -0.25930
H920        H  0.32976308  0.80005263  0.58718924     0.06650
N921        N  0.24096858  0.93911876  0.98402175    -0.47160
H922        H  0.36528026  0.79194771  0.95727544     0.06630
C923        C  0.18985538  0.60881196  0.50222634     0.42330
C924        C  0.27515505  0.88846704  0.92966891    -0.06680
Co925      Co  0.24201407  0.75426915  0.96767436     0.73820
N926        N  0.35379134  0.78302887  0.52891906    -0.46870
C927        C  0.04143466  0.76729301  0.50876880     0.42600
N928        N  0.16232428  0.70241146  0.92421342    -0.46860
Co929      Co  0.24332345  0.74806110  0.54080010     0.73890
C930        C  0.15254167  0.68611704  0.57914892    -0.07190
C931        C  0.24714647  0.94024301  0.53303917    -0.06750
N932        N  0.15493195  0.76206010  0.94509613    -0.26280
N933        N  0.27965465  0.87292482  0.59064225    -0.47040
H934        H  0.06542755  0.77520646  0.55681886     0.06610
C935        C  0.19763261  0.64049889  0.97701474    -0.07170
Cl936      Cl  0.21492883  0.78849575  0.50613046    -0.50170
C937        C  0.38447354  0.79437875  0.50597565     0.42360
H938        H  0.10842227  0.77015571  0.91261457     0.06570
N939        N  0.19967441  0.63782126  0.52601937    -0.46880
C940        C  0.43290303  0.79612558  0.50712923     0.42210
N941        N  0.48860711  0.77816347  0.99386687     0.01100
C942        C  0.64572279  0.74786271  0.59073313    -0.06770
H943        H  0.67583009  0.90656167  0.59443840     0.06600
C944        C  0.72000165  0.94012936  0.97831832    -0.07120
Co945      Co  0.53515320  0.75502438  0.54378658     0.74180
N946        N  0.62212564  0.84972615  0.56603961    -0.26300
Co947      Co  0.66497414  0.82773750  0.54206245     0.74070
C948        C  0.73833640  0.97262091  0.50370008     0.42320
N949        N  0.61236272  0.84920532  0.94459265     0.00720
N950        N  0.69893351  0.89530717  0.51755695     0.00830
N951        N  0.56189069  0.70061622  0.58701685    -0.47150
H952        H  0.44782438  0.78894323  0.55555189     0.06580
N953        N  0.57273017  0.82170759  0.56695362     0.01110
N954        N  0.70422248  0.80100906  0.51748109     0.00850
C955        C  0.74559918  0.76431640  0.50527741     0.42460
N956        N  0.56330640  0.82139266  0.94749439    -0.25760
C957        C  0.46325336  0.64248282  0.53004575    -0.06680
N958        N  0.45403441  0.78813225  0.98376547    -0.46860
N959        N  0.72955720  0.77982470  0.52812281    -0.47090
C960        C  0.43914057  0.61332083  0.50382829     0.42230
N961        N  0.57986656  0.73277011  0.56551877     0.01100
N962        N  0.57089558  0.73479797  0.94297617    -0.25780
N963        N  0.49075710  0.77820409  0.52242370    -0.26270
N964        N  0.62042181  0.76149329  0.94146538     0.00740
H965        H  0.51391596  0.68785914  0.91201189     0.06630
H966        H  0.73067210  0.77006773  0.95654522     0.06660
N967        N  0.62915959  0.76153428  0.56697152    -0.26320
N968        N  0.69627032  0.89347894  0.98890268    -0.25930
N969        N  0.49529354  0.68760277  0.99179052     0.01100
C970        C  0.59116801  0.87253939  0.60266532     0.42500
C971        C  0.53996311  0.83634638  0.92909752    -0.07190
N972        N  0.70184225  0.80006713  0.98870681    -0.25930
H973        H  0.72348076  0.95001463  0.95556743     0.06650
N974        N  0.55298628  0.83357950  0.58883377    -0.47160
H975        H  0.50004360  0.81619168  0.92463777     0.06630
C976        C  0.59687203  0.72278733  0.90080448     0.42330
C977        C  0.45691244  0.78929768  0.53288877    -0.06680
Co978      Co  0.52949380  0.75501719  0.96925672     0.73820
N979        N  0.62396295  0.88236268  0.92340798    -0.46870
C980        C  0.60033949  0.70730037  0.60426321     0.42600
N981        N  0.46062862  0.64404014  0.98103331    -0.46860
Co982      Co  0.65899078  0.82653029  0.96586465     0.73890
C983        C  0.72720307  0.77774220  0.97904865    -0.07190
C984        C  0.63720393  0.88313226  0.58762399    -0.06750
N985        N  0.49693093  0.68795797  0.52046994    -0.26280
N986        N  0.72378851  0.94216007  0.52733182    -0.47040
H987        H  0.68340224  0.76828127  0.59961230     0.06610
C988        C  0.55300051  0.70796019  0.91858787    -0.07170
Cl989      Cl  0.59725524  0.79080524  0.50523980    -0.50170
C990        C  0.57974677  0.87697911  0.91329011     0.42360
H991        H  0.45260876  0.63292834  0.55247085     0.06570
N992        N  0.63750739  0.75460481  0.91655866    -0.46880
C993        C  0.11571270  0.40464072  0.91421510     0.42210
N994        N  0.17549389  0.42622666  0.94485257     0.01100
C995        C  0.23911362  0.28117587  0.52967700    -0.06770
H996        H  0.06222027  0.27531107  0.55383079     0.06600
C997        C  0.16666337  0.45372527  0.58295304    -0.07120
Co998      Co  0.18262260  0.33979480  0.96750246     0.74180
N999        N  0.11928376  0.30400776  0.52085895    -0.26300
Co1000     Co  0.18832812  0.34595466  0.54304429     0.74070
C1001       C  0.13189069  0.41076801  0.59995823     0.42320
N1002       N  0.21640585  0.51120408  0.51538025     0.00720
N1003       N  0.16123194  0.38642554  0.56538413     0.00830
N1004       N  0.23476282  0.27825198  0.98057393    -0.47150
H1005       H  0.09096381  0.32150172  0.91915191     0.06580
N1006       N  0.11686792  0.30141579  0.99217336     0.01110
N1007       N  0.25723094  0.39127942  0.56419253     0.00850
C1008       C  0.31796515  0.42314167  0.59518267     0.42460
N1009       N  0.21538475  0.50897023  0.98684152    -0.25760
C1010       C  0.26663754  0.36635761  0.92149304    -0.06680
N1011       N  0.15492975  0.44403671  0.92670794    -0.46860
N1012       N  0.27875821  0.37944510  0.58561998    -0.47090
C1013       C  0.30508309  0.41288826  0.90827928     0.42230
N1014       N  0.21516998  0.30466537  0.99126653     0.01100
N1015       N  0.31238447  0.51303919  0.98644856    -0.25780
N1016       N  0.15263953  0.37711827  0.94472983    -0.26270
N1017       N  0.31391940  0.51528246  0.51499829     0.00740
H1018       H  0.36783298  0.55356280  0.95374025     0.06630
H1019       H  0.33727057  0.50241520  0.58275220     0.06660
N1020       N  0.21730616  0.30708198  0.51996591    -0.26320
N1021       N  0.18369280  0.43533194  0.56269651    -0.25930
N1022       N  0.27108029  0.42996395  0.94353394     0.01100
C1023       C  0.03958804  0.25991303  0.50543726     0.42500
C1024       C  0.19984626  0.53953138  0.97634156    -0.07190
N1025       N  0.27862429  0.43994104  0.56087304    -0.25930
H1026       H  0.18215143  0.49294194  0.58755677     0.06650
N1027       N  0.06993385  0.27568283  0.98206584    -0.47160
H1028       H  0.19845044  0.54784487  0.95362287     0.06630
C1029       C  0.38927740  0.56784936  0.50232543     0.42330
C1030       C  0.11433313  0.35995484  0.92565258    -0.06680
Co1031     Co  0.24370959  0.46958522  0.96517849     0.73820
N1032       N  0.20360801  0.54346247  0.52542037    -0.46870
C1033       C  0.25062192  0.26204532  0.50351672     0.42600
N1034       N  0.30500035  0.45011669  0.92313414    -0.46860
Co1035     Co  0.24797657  0.47556975  0.53858972     0.73890
C1036       C  0.31729489  0.46269939  0.57883367    -0.07190
C1037       C  0.07231438  0.27874328  0.53116696    -0.06750
N1038       N  0.24755357  0.38080792  0.94311172    -0.26280
N1039       N  0.13059286  0.37032056  0.58786800    -0.47040
H1040       H  0.24594187  0.27625056  0.55222276     0.06610
C1041       C  0.35825918  0.54508362  0.97634928    -0.07170
Cl1042     Cl  0.21569161  0.40763906  0.50360770    -0.50170
C1043       C  0.19182386  0.56224699  0.50197117     0.42360
H1044       H  0.25180315  0.32841429  0.91409220     0.06570
N1045       N  0.35893618  0.54790117  0.52541109    -0.46880
C1046       C  0.59226567  0.20544704  0.50354533     0.42210
N1047       N  0.53422456  0.22163651  0.99152876     0.01100
C1048       C  0.37352559  0.25323699  0.58303165    -0.06770
H1049       H  0.34878426  0.09412799  0.59323768     0.06600
C1050       C  0.30407623  0.05636053  0.97779715    -0.07120
Co1051     Co  0.48870938  0.24411700  0.54234664     0.74180
N1052       N  0.40209948  0.15019254  0.56446754    -0.26300
Co1053     Co  0.35883168  0.17100914  0.53935631     0.74070
C1054       C  0.28776346  0.02613866  0.50427331     0.42320
N1055       N  0.40908344  0.15155835  0.94084868     0.00720
N1056       N  0.32626137  0.10397441  0.51578177     0.00830
N1057       N  0.45793973  0.30136057  0.58325978    -0.47150
H1058       H  0.57997669  0.21178397  0.55237235     0.06580
N1059       N  0.45158668  0.17791811  0.56544712     0.01110
N1060       N  0.31773888  0.19563413  0.51455444     0.00850
C1061       C  0.27599338  0.23183823  0.50169736     0.42460
N1062       N  0.45829614  0.17992533  0.94346287    -0.25760
C1063       C  0.56106663  0.35568101  0.53057434    -0.06680
N1064       N  0.56894722  0.21292103  0.98075952    -0.46860
N1065       N  0.29266854  0.21696136  0.52483220    -0.47090
C1066       C  0.58582013  0.38560028  0.50508285     0.42230
N1067       N  0.44265999  0.26606493  0.56325644     0.01100
N1068       N  0.44877058  0.26674314  0.94317758    -0.25780
N1069       N  0.53358414  0.22132356  0.52021742    -0.26270
N1070       N  0.39947016  0.23801336  0.94076924     0.00740
H1071       H  0.50353497  0.32418521  0.91595781     0.06630
H1072       H  0.29003491  0.22564671  0.95320461     0.06660
N1073       N  0.39332867  0.23727910  0.56275221    -0.26320
N1074       N  0.32766180  0.10401436  0.98707573    -0.25930
N1075       N  0.52801642  0.31239659  0.99138723     0.01100
C1076       C  0.43344066  0.12968398  0.60203827     0.42500
C1077       C  0.48042360  0.17006533  0.92168044    -0.07190
N1078       N  0.31929218  0.19604107  0.98588887    -0.25930
H1079       H  0.29911850  0.04436864  0.95536060     0.06650
N1080       N  0.47172890  0.16707697  0.58788257    -0.47160
H1081       H  0.52006530  0.19126081  0.91728735     0.06630
C1082       C  0.41972185  0.28770053  0.90479873     0.42330
C1083       C  0.56911375  0.21124544  0.52988007    -0.06680
Co1084     Co  0.49239723  0.24543353  0.96758660     0.73820
N1085       N  0.39630486  0.12456723  0.91660927    -0.46870
C1086       C  0.41644368  0.29621632  0.59625124     0.42600
N1087       N  0.56368986  0.35606348  0.98160849    -0.46860
Co1088     Co  0.36270710  0.17149539  0.96357857     0.73890
C1089       C  0.29360681  0.21796289  0.97577467    -0.07190
C1090       C  0.38718719  0.11787651  0.58661947    -0.06750
N1091       N  0.52653712  0.31108862  0.52001757    -0.26280
N1092       N  0.30293424  0.05833958  0.52687966    -0.47040
H1093       H  0.33463121  0.23435065  0.58947706     0.06610
C1094       C  0.46471888  0.30011278  0.92172321    -0.07170
Cl1095     Cl  0.42575942  0.20796059  0.50318806    -0.50170
C1096       C  0.43943178  0.13463419  0.90315129     0.42360
H1097       H  0.57194775  0.36384930  0.55320353     0.06570
N1098       N  0.38073207  0.24863988  0.91751480    -0.46880
C1099       C  0.44409202  0.35985500  0.68115199    -0.00400
C1100       C  0.45804780  0.39025125  0.65634977    -0.12270
C1101       C  0.44501284  0.36980823  0.62853865     0.01840
C1102       C  0.41891974  0.31795012  0.62499819    -0.00490
C1103       C  0.40266420  0.28717677  0.64965459    -0.12210
C1104       C  0.41518499  0.30785393  0.67774453     0.01720
H1105       H  0.48027325  0.43023677  0.65841139     0.14700
H1106       H  0.38245792  0.24706358  0.64694427     0.14700
C1107       C  0.40144683  0.27528252  0.70258268     0.36350
C1108       C  0.45814902  0.40268422  0.60382973     0.36260
N1109       N  0.39112338  0.24936127  0.72256202    -0.43990
N1110       N  0.46787599  0.42877036  0.58396815    -0.43990
C1111       C  0.41951711  0.30682580  0.87562251    -0.00400
C1112       C  0.44054691  0.35798917  0.87334827    -0.12270
C1113       C  0.44748334  0.38059010  0.84644616     0.01840
C1114       C  0.43391779  0.35205226  0.82056410    -0.00490
C1115       C  0.41123482  0.30000685  0.82272627    -0.12210
C1116       C  0.40433522  0.27715801  0.85016842     0.01720
H1117       H  0.45196719  0.38067579  0.89294320     0.14700
H1118       H  0.40036472  0.27753256  0.80312149     0.14700
C1119       C  0.38477472  0.22408421  0.85160823     0.36350
C1120       C  0.46649746  0.43318448  0.84707486     0.36260
N1121       N  0.36939262  0.18156619  0.85276730    -0.43990
N1122       N  0.48021669  0.47504254  0.84988708    -0.43990
C1123       C  0.65326717  0.54585566  0.68663023    -0.00400
C1124       C  0.69547894  0.59256804  0.68122663    -0.12270
C1125       C  0.71539785  0.60585173  0.65319815     0.01840
C1126       C  0.69151332  0.57251912  0.62978188    -0.00490
C1127       C  0.64904736  0.52640140  0.63529732    -0.12210
C1128       C  0.63166419  0.51179266  0.66331655     0.01720
H1129       H  0.71352082  0.61832026  0.69907738     0.14700
H1130       H  0.63049788  0.50008531  0.61769299     0.14700
C1131       C  0.59410754  0.46028979  0.66714253     0.36350
C1132       C  0.76134295  0.65249832  0.64960330     0.36260
N1133       N  0.56569624  0.41829744  0.66950583    -0.43990
N1134       N  0.79844689  0.68975173  0.64695379    -0.43990
C1135       C  0.65776729  0.54610795  0.82448313    -0.00400
C1136       C  0.69850378  0.59397216  0.83020198    -0.12270
C1137       C  0.71919062  0.60787801  0.85807773     0.01840
C1138       C  0.69831138  0.57358201  0.88107228    -0.00490
C1139       C  0.66209653  0.52395571  0.87442358    -0.12210
C1140       C  0.64249664  0.50963577  0.84638900     0.01720
H1141       H  0.71280437  0.62173890  0.81314762     0.14700
H1142       H  0.64747478  0.49616558  0.89146802     0.14700
C1143       C  0.60342833  0.45859616  0.84190417     0.36350
C1144       C  0.76284628  0.65648903  0.86157802     0.36260
N1145       N  0.57202529  0.41769679  0.83862783    -0.43990
N1146       N  0.79836036  0.69534480  0.86365973    -0.43990
C1147       C  0.59257633  0.68658280  0.63449180    -0.00400
C1148       C  0.63395332  0.69708301  0.65268124    -0.12270
C1149       C  0.62713883  0.67410289  0.68007427     0.01840
C1150       C  0.57848566  0.63915433  0.68932491    -0.00490
C1151       C  0.53736844  0.63282920  0.67272627    -0.12210
C1152       C  0.54358834  0.65599643  0.64580360     0.01720
H1153       H  0.67167860  0.72199411  0.64525077     0.14700
H1154       H  0.49983408  0.60658291  0.67999097     0.14700
C1155       C  0.49818602  0.64565240  0.63032247     0.36350
C1156       C  0.67045479  0.68603014  0.69805205     0.36260
N1157       N  0.46148982  0.63720543  0.61825492    -0.43990
N1158       N  0.70516699  0.69654333  0.71274423    -0.43990
C1159       C  0.57548525  0.63443018  0.82534825    -0.00400
C1160       C  0.58060845  0.68183940  0.82150322    -0.12270
C1161       C  0.59046355  0.71363824  0.84570178     0.01840
C1162       C  0.59752351  0.69865361  0.87361361    -0.00490
C1163       C  0.59648458  0.65388816  0.87689024    -0.12210
C1164       C  0.58452977  0.62146260  0.85372142     0.01720
H1165       H  0.57426343  0.69282645  0.80019473     0.14700
H1166       H  0.60152207  0.64249780  0.89847636     0.14700
C1167       C  0.57866860  0.57396568  0.86170455     0.36350
C1168       C  0.59159805  0.76040546  0.84167659     0.36260
N1169       N  0.57337262  0.53703520  0.87108359    -0.43990
N1170       N  0.59256877  0.79795263  0.83833612    -0.43990
C1171       C  0.38375294  0.46035893  0.68020073    -0.00400
C1172       C  0.40572239  0.49264562  0.65672373    -0.12270
C1173       C  0.38779875  0.47785234  0.62868545     0.01840
C1174       C  0.34237520  0.43297051  0.62393650    -0.00490
C1175       C  0.31729627  0.40245591  0.64771855    -0.12210
C1176       C  0.33829917  0.41533981  0.67578716     0.01720
H1177       H  0.44143483  0.52655154  0.65976619     0.14700
H1178       H  0.28191940  0.36837390  0.64434742     0.14700
C1179       C  0.31478406  0.38029435  0.69910997     0.36350
C1180       C  0.41931541  0.50765300  0.60512258     0.36260
N1181       N  0.29606406  0.35219706  0.71782733    -0.43990
N1182       N  0.44476861  0.53140630  0.58634167    -0.43990
C1183       C  0.36339241  0.43838788  0.82151296    -0.00400
C1184       C  0.38205180  0.47708337  0.84203826    -0.12270
C1185       C  0.36565452  0.46839498  0.87060193     0.01840
C1186       C  0.32603791  0.42114404  0.87871673    -0.00490
C1187       C  0.30357632  0.38364796  0.85748122    -0.12210
C1188       C  0.32195622  0.39174885  0.82904288     0.01720
H1189       H  0.41347543  0.51328685  0.83663684     0.14700
H1190       H  0.27193083  0.34780095  0.86305934     0.14700
C1191       C  0.29846621  0.35109546  0.80853243     0.36350
C1192       C  0.39346012  0.50779622  0.89145163     0.36260
N1193       N  0.27936025  0.31845581  0.79213478    -0.43990
N1194       N  0.41652443  0.53944916  0.90793132    -0.43990
C1195       C  0.89134696  0.58372126  0.64307855    -0.00400
C1196       C  0.93271830  0.62326093  0.65725417    -0.12270
C1197       C  0.94611822  0.61824838  0.68602933     0.01840
C1198       C  0.91919402  0.57223272  0.70080116    -0.00490
C1199       C  0.87367239  0.53603248  0.68829499    -0.12210
C1200       C  0.85906812  0.54170660  0.66011499     0.01720
H1201       H  0.95646451  0.65704258  0.64530246     0.14700
H1202       H  0.85166153  0.50098502  0.69953238     0.14700
C1203       C  0.81065898  0.50352518  0.64961061     0.36350
C1204       C  0.99042661  0.65936387  0.69878210     0.36260
N1205       N  0.77153790  0.47286984  0.64156142    -0.43990
N1206       N  0.02584153  0.69272038  0.70886963    -0.43990
C1207       C  0.89940887  0.59395416  0.87456677    -0.00400
C1208       C  0.94901109  0.60594879  0.87201677    -0.12270
C1209       C  0.96441466  0.59053474  0.84784314     0.01840
C1210       C  0.93330648  0.57228858  0.82256808    -0.00490
C1211       C  0.88396645  0.56354533  0.82430813    -0.12210
C1212       C  0.86612262  0.57181763  0.85066753     0.01720
H1213       H  0.97355689  0.61990043  0.89100925     0.14700
H1214       H  0.85827422  0.54598677  0.80617544     0.14700
C1215       C  0.81314340  0.55373201  0.85336298     0.36350
C1216       C  0.00558613  0.58201318  0.85372231     0.36260
N1217       N  0.77037519  0.53789617  0.85540305    -0.43990
N1218       N  0.03675354  0.57375613  0.86131449    -0.43990
C1219       C  0.90953964  0.30951161  0.63106194    -0.00400
C1220       C  0.94340467  0.35996257  0.63199929    -0.12270
C1221       C  0.95507684  0.38630524  0.65789844     0.01840
C1222       C  0.93362172  0.36167386  0.68460773    -0.00490
C1223       C  0.90129884  0.31001324  0.68391835    -0.12210
C1224       C  0.88836279  0.28400345  0.65722356     0.01720
H1225       H  0.95939808  0.37956939  0.61182838     0.14700
H1226       H  0.88401548  0.29057403  0.70384423     0.14700
C1227       C  0.85023626  0.23250686  0.65705146     0.36350
C1228       C  0.99059916  0.43842800  0.65495075     0.36260
N1229       N  0.81907396  0.19127197  0.65744539    -0.43990
N1230       N  0.02124106  0.47903601  0.65034384    -0.43990
C1231       C  0.92378931  0.34723381  0.81197348    -0.00400
C1232       C  0.95306452  0.32849053  0.82465278    -0.12270
C1233       C  0.94311359  0.30767968  0.85282220     0.01840
C1234       C  0.90226364  0.30408560  0.86872847    -0.00490
C1235       C  0.87020034  0.31821441  0.85467936    -0.12210
C1236       C  0.88063082  0.33961432  0.82687528     0.01720
H1237       H  0.98733340  0.33548659  0.81406089     0.14700
H1238       H  0.83784534  0.31477775  0.86598314     0.14700
C1239       C  0.84913065  0.35808102  0.81515627     0.36350
C1240       C  0.97838921  0.29515700  0.86579862     0.36260
N1241       N  0.82408609  0.37312661  0.80580702    -0.43990
N1242       N  0.00697189  0.28536874  0.87608963    -0.43990
C1243       C  0.11800642  0.41313629  0.63038604    -0.00400
C1244       C  0.14828133  0.45656676  0.64671591    -0.12270
C1245       C  0.13448179  0.46273750  0.67450223     0.01840
C1246       C  0.09032273  0.42470531  0.68670756    -0.00490
C1247       C  0.06198746  0.37974753  0.67154136    -0.12210
C1248       C  0.07531376  0.37373083  0.64343183     0.01720
H1249       H  0.18232252  0.48654820  0.63764137     0.14700
H1250       H  0.02727359  0.35083025  0.68073889     0.14700
C1251       C  0.04252721  0.32849528  0.62773062     0.36350
C1252       C  0.16488622  0.50931573  0.68962397     0.36260
N1253       N  0.01611791  0.29228537  0.61513649    -0.43990
N1254       N  0.18922138  0.54657628  0.70178571    -0.43990
C1255       C  0.07644609  0.44383465  0.83416075    -0.00100
C1256       C  0.11074562  0.42645482  0.83441626    -0.12270
C1257       C  0.12215738  0.41044711  0.86032610     0.01840
C1258       C  0.09747215  0.41017155  0.88601902    -0.00490
C1259       C  0.06208757  0.42584202  0.88558974    -0.12210
C1260       C  0.05122171  0.44258944  0.85992812     0.01720
H1261       H  0.12966687  0.42684344  0.81457578     0.14700
H1262       H  0.04390922  0.42627016  0.90559168     0.14700
C1263       C  0.01264077  0.45618657  0.86090747     0.36350
C1264       C  0.16151173  0.39770298  0.86047112     0.36260
N1265       N  0.98075127  0.46565934  0.86278569    -0.43990
N1266       N  0.19332889  0.38791219  0.86067766    -0.43990
C1267       C  0.09665954  0.67379987  0.62162206    -0.00400
C1268       C  0.05291010  0.62801874  0.62278996    -0.12270
C1269       C  0.03912611  0.60145012  0.64855665     0.01840
C1270       C  0.07051179  0.62086280  0.67342645    -0.00490
C1271       C  0.11294243  0.66828523  0.67261526    -0.12210
C1272       C  0.12642701  0.69496978  0.64672493     0.01720
H1273       H  0.03027316  0.61236832  0.60326010     0.14700
H1274       H  0.13622199  0.68369711  0.69192241     0.14700
C1275       C  0.17208714  0.74259102  0.64596150     0.36350
C1276       C  0.99202730  0.55541019  0.64828619     0.36260
N1277       N  0.20864134  0.78073530  0.64524713    -0.43990
N1278       N  0.95366501  0.51913872  0.64636357    -0.43990
C1279       C  0.10625691  0.66291534  0.81794283    -0.00400
C1280       C  0.13530302  0.65052413  0.83583348    -0.12270
C1281       C  0.14316818  0.66466662  0.86487550     0.01840
C1282       C  0.12489665  0.69550553  0.87600814    -0.00490
C1283       C  0.10230628  0.71396792  0.85663398    -0.12210
C1284       C  0.09280260  0.69778720  0.82764247     0.01720
H1285       H  0.14572333  0.62374264  0.82816455     0.14700
H1286       H  0.08978628  0.73899764  0.86431787     0.14700
C1287       C  0.06557851  0.71402933  0.80903914     0.36350
C1288       C  0.16496430  0.64161460  0.88275056     0.36260
N1289       N  0.04410150  0.72731028  0.79400437    -0.43990
N1290       N  0.18189222  0.62214166  0.89658363    -0.43990
C1291       C  0.38882142  0.89323708  0.68450347    -0.00400
C1292       C  0.40834136  0.88050757  0.66085075    -0.12270
C1293       C  0.38719272  0.87460087  0.63319294     0.01840
C1294       C  0.34260974  0.87705220  0.62906790    -0.00490
C1295       C  0.32092281  0.88643242  0.65318471    -0.12210
C1296       C  0.34401366  0.89508068  0.68075887     0.01720
H1297       H  0.44398006  0.88131895  0.66332880     0.14700
H1298       H  0.28644536  0.88769028  0.65045288     0.14700
C1299       C  0.32330222  0.90949102  0.70435724     0.36350
C1300       C  0.41529935  0.87118668  0.60915555     0.36260
N1301       N  0.30682720  0.92115297  0.72329673    -0.43990
N1302       N  0.43818308  0.86882053  0.59002795    -0.43990
C1303       C  0.40566981  0.93692922  0.84369332    -0.00400
C1304       C  0.35540478  0.89922196  0.84073865    -0.12270
C1305       C  0.32444990  0.88217755  0.86494977     0.01840
C1306       C  0.34407112  0.90296140  0.89244036    -0.00490
C1307       C  0.39407970  0.93955685  0.89571033    -0.12210
C1308       C  0.42513295  0.95690299  0.87173322     0.01720
H1309       H  0.33986680  0.88401384  0.81947451     0.14700
H1310       H  0.40912415  0.95397250  0.91720841     0.14700
C1311       C  0.47696442  0.99427774  0.87703017     0.36350
C1312       C  0.27291183  0.84315988  0.86122928     0.36260
N1313       N  0.51846579  0.02397817  0.88135025    -0.43990
N1314       N  0.23161382  0.81192516  0.85832238    -0.43990
C1315       C  0.58797457  0.88935805  0.63232752    -0.00400
C1316       C  0.55070739  0.85658201  0.65150593    -0.12270
C1317       C  0.54749102  0.87190222  0.67974995     0.01840
C1318       C  0.58295986  0.92001811  0.68953000    -0.00490
C1319       C  0.62124467  0.95164913  0.67071037    -0.12210
C1320       C  0.62275460  0.93758138  0.64203387     0.01720
H1321       H  0.52376906  0.81921426  0.64437633     0.14700
H1322       H  0.64766440  0.98863127  0.67773448     0.14700
C1323       C  0.65654517  0.97448665  0.62184220     0.36350
C1324       C  0.50782107  0.83770754  0.69843336     0.36260
N1325       N  0.68192247  0.00241640  0.60441939    -0.43990
N1326       N  0.47622671  0.81027972  0.71353477    -0.43990
C1327       C  0.57110624  0.89544972  0.88538663    -0.00400
C1328       C  0.60261268  0.90314468  0.86168997    -0.12270
C1329       C  0.59244621  0.91701309  0.83443955     0.01840
C1330       C  0.55026949  0.92332428  0.83083872    -0.00490
C1331       C  0.51779261  0.91324300  0.85403506    -0.12210
C1332       C  0.52802327  0.90034269  0.88120625     0.01720
H1333       H  0.63505596  0.89829937  0.86442621     0.14700
H1334       H  0.48551889  0.91812205  0.85122846     0.14700
C1335       C  0.49483363  0.89512128  0.90465700     0.36350
C1336       C  0.62665797  0.92644391  0.81090345     0.36260
N1337       N  0.46800848  0.89086185  0.92329817    -0.43990
N1338       N  0.65409836  0.93404782  0.79202471    -0.43990
C1339       C  0.68971887  0.11661806  0.62347849    -0.00400
C1340       C  0.65064528  0.12654244  0.62907455    -0.12270
C1341       C  0.62684867  0.11511289  0.65557660     0.01840
C1342       C  0.63909037  0.08978966  0.67642189    -0.00490
C1343       C  0.68178709  0.08517726  0.67273876    -0.12210
C1344       C  0.70680756  0.09748217  0.64612272     0.01720
H1345       H  0.63746739  0.14255834  0.61264553     0.14700
H1346       H  0.69309089  0.06834954  0.68972780     0.14700
C1347       C  0.74800502  0.08804394  0.64254711     0.36350
C1348       C  0.59077322  0.13093031  0.66110416     0.36260
N1349       N  0.78087841  0.08018112  0.63982728    -0.43990
N1350       N  0.56385446  0.14624740  0.66519245    -0.43990
C1351       C  0.69759808  0.11469174  0.87388085    -0.00400
C1352       C  0.68605124  0.14724769  0.85843770    -0.12270
C1353       C  0.66708061  0.13679476  0.82986864     0.01840
C1354       C  0.65991372  0.09319890  0.81579722    -0.00490
C1355       C  0.67361539  0.06192064  0.83089984    -0.12210
C1356       C  0.69087758  0.07140810  0.85972230     0.01720
H1357       H  0.69138323  0.18101578  0.86876779     0.14700
H1358       H  0.66793073  0.02792952  0.82082100     0.14700
C1359       C  0.69774773  0.03406934  0.87464624     0.36350
C1360       C  0.65471907  0.17117546  0.81580729     0.36260
N1361       N  0.70289272  0.00386945  0.88655494    -0.43990
N1362       N  0.64473758  0.19874763  0.80462687    -0.43990
C1363       C  0.43876577  0.10944911  0.62984606    -0.00400
C1364       C  0.44207347  0.06645409  0.62867733    -0.12270
C1365       C  0.45397589  0.04834927  0.65341425     0.01840
C1366       C  0.45755346  0.07052144  0.68105034    -0.00490
C1367       C  0.45304761  0.11346493  0.68228908    -0.12210
C1368       C  0.44586914  0.13423532  0.65666992     0.01720
H1369       H  0.43915922  0.04904960  0.60772620     0.14700
H1370       H  0.45775019  0.13211616  0.70295481     0.14700
C1371       C  0.44945941  0.18240573  0.65808537     0.36350
C1372       C  0.46883137  0.01189133  0.64777154     0.36260
N1373       N  0.45386034  0.22171039  0.65923969    -0.43990
N1374       N  0.48202006  0.98455078  0.64042071    -0.43990
C1375       C  0.44988446  0.09458010  0.81433825    -0.00400
C1376       C  0.48664532  0.14064603  0.82556976    -0.12270
C1377       C  0.48270609  0.15619234  0.85355503     0.01840
C1378       C  0.44242455  0.12404696  0.87179238    -0.00490
C1379       C  0.40327532  0.08046441  0.85957663    -0.12210
C1380       C  0.40589759  0.06603355  0.83108861     0.01720
H1381       H  0.51954165  0.16407239  0.81276978     0.14700
H1382       H  0.37090591  0.05665389  0.87266179     0.14700
C1383       C  0.36337443  0.02050045  0.82053104     0.36350
C1384       C  0.51966352  0.20616023  0.86202675     0.36260
N1385       N  0.32906917  0.98407879  0.81222728    -0.43990
N1386       N  0.54927599  0.24657217  0.86828407    -0.43990
loop_ 
_geom_bond_atom_site_label_1 
_geom_bond_atom_site_label_2 
_geom_bond_distance 
_geom_bond_site_symmetry_2 
_ccdc_geom_bond_type 
O1            C9   1.262   1_545  A
O1          Co21   1.972       .  S
O2           C10   1.284       .  A
O2          Co22   2.075   1_565  S
O3           C11   1.259       .  A
O3          Co23   1.984       .  S
O4           C12   1.275       .  A
O4          Co24   1.975       .  S
O5           C11   1.254       .  A
O5          Co22   1.959   1_565  S
O6           C12   1.279       .  A
O6          Co21   2.013   1_565  S
O7           C10   1.268       .  A
O7          Co24   1.930       .  S
O8            C9   1.270       .  A
O8          Co23   1.982       .  S
C9          C610   1.472       .  S
C10         C625   1.480       .  S
C11         C598   1.467       .  S
C12         C637   1.467       .  S
O13          C26   1.260       .  A
O13         Co21   1.965       .  S
O14          C27   1.266       .  A
O14         Co22   1.972       .  S
O15          C28   1.268       .  A
O15         Co23   2.006   1_545  S
O16          C29   1.288       .  A
O16         Co24   2.094   1_545  S
O17          C29   1.260       .  A
O17         Co22   1.873       .  S
O18          C28   1.268       .  A
O18         Co21   1.973       .  S
O19          C26   1.259       .  A
O19         Co24   1.991   1_545  S
O20          C27   1.276       .  A
O20         Co23   2.039   1_545  S
Co21         O25   2.016       .  S
Co22         O25   1.973       .  S
Co23         O25   2.076   1_565  S
Co24         O25   2.055   1_565  S
C26         C661   1.494       .  S
C27         C673   1.484       .  S
C28         C682   1.498       .  S
C29         C649   1.456       .  S
O30          C38   1.252       .  A
O30         Co50   1.945   1_655  S
O31          C39   1.249       .  A
O31         Co51   1.935       .  S
O32          C40   1.286       .  A
O32         Co52   2.047   1_655  S
O33          C41   1.287       .  A
O33         Co53   2.046   1_655  S
O34          C40   1.266       .  A
O34         Co51   1.982       .  S
O35          C41   1.264       .  A
O35         Co50   1.975   1_655  S
O36          C39   1.279       .  A
O36         Co53   2.058   1_655  S
O37          C38   1.281       .  A
O37         Co52   2.057   1_655  S
C38         C517   1.485       .  S
C39         C529   1.489       .  S
C40         C505   1.492       .  S
C41         C538   1.488       .  S
O42          C55   1.249       .  A
O42         Co50   1.967       .  S
O43          C56   1.246       .  A
O43         Co51   1.963   1_455  S
O44          C57   1.257       .  A
O44         Co52   1.901       .  S
O45          C58   1.259       .  A
O45         Co53   1.908       .  S
O46          C58   1.285       .  A
O46         Co51   2.076   1_455  S
O47          C57   1.290       .  A
O47         Co50   2.066       .  S
O48          C55   1.244       .  A
O48         Co53   1.970       .  S
O49          C56   1.241       .  A
O49         Co52   1.964       .  S
Co50         O54   2.084   1_455  S
Co51         O54   2.082       .  S
Co52         O54   2.017   1_455  S
Co53         O54   2.027   1_455  S
C55         C562   1.460       .  S
C56         C577   1.453       .  S
C57         C586   1.462       .  S
C58         C553   1.462       .  S
O59          C67   1.282       .  A
O59         Co79   2.038       .  S
O60          C68   1.248       .  A
O60         Co80   1.962       .  S
O61          C69   1.247       .  A
O61         Co81   1.996       .  S
O62          C70   1.271       .  A
O62         Co82   1.867       .  S
O63          C69   1.252       .  A
O63         Co80   1.965       .  S
O64          C70   1.301       .  A
O64         Co79   2.075       .  S
O65          C68   1.249       .  A
O65         Co82   2.001       .  S
O66          C67   1.278       .  A
O66         Co81   1.977       .  S
C67         C421   1.481       .  S
C68         C430   1.482       .  S
C69         C406   1.477       .  S
C70         C442   1.477       .  S
O71          C84   1.254       .  A
O71         Co79   1.972       .  S
O72          C85   1.271       .  A
O72         Co80   1.966       .  S
O73          C86   1.263       .  A
O73         Co81   1.958       .  S
O74          C87   1.284       .  A
O74         Co82   2.019       .  S
O75          C87   1.276       .  A
O75         Co80   1.999       .  S
O76          C86   1.277       .  A
O76         Co79   2.060       .  S
O77          C84   1.265       .  A
O77         Co82   1.992       .  S
O78          C85   1.276       .  A
O78         Co81   1.988       .  S
Co79         O83   2.137       .  S
Co80         O83   2.006       .  S
Co81         O83   1.999       .  S
Co82         O83   1.961       .  S
C84         C466   1.492       .  S
C85         C478   1.463       .  S
C86         C490   1.482       .  S
C87         C457   1.478       .  S
C88         C125   1.457       .  S
C88         C514   1.472       .  S
C88         N106   1.343       .  A
N89         N106   1.324       .  A
N89         N111   1.324       .  A
N89        Co126   2.073       .  S
C90         C128   1.470       .  S
C90         N115   1.351       .  A
C90         H135   1.082       .  S
H91         C132   1.082       .  S
C92          C96   1.464       .  S
C92         N116   1.340       .  A
C92         H121   1.080       .  S
Co93        N111   2.082       .  S
Co93        N101   2.121       .  S
Co93        N133   2.094       .  S
Co93        N109   2.095       .  S
Co93       Cl830   2.464       .  S
N94         C132   1.345       .  A
N94         N794   1.326   1_554  A
N94         Co95   2.116       .  S
Co95         N98   2.113       .  S
Co95        N115   2.119       .  S
Co95        N102   2.087       .  S
Co95       Cl137   2.467       .  S
C96         C502   1.508       .  S
C96         N134   1.357       .  A
N97         N127   1.329       .  A
N97         N797   1.320   1_554  A
N97        Co130   2.112       .  S
N98         N116   1.324       .  A
N98         N134   1.333       .  A
N99         C821   1.352       .  A
N99         N109   1.331       .  A
H100        C125   1.081       .  S
N101        N122   1.333       .  A
N101        N787   1.326       .  A
N102        N120   1.322       .  A
N102        N107   1.327       .  A
C103        C131   1.455       .  S
C103        C433   1.478       .  S
C103        N107   1.354       .  A
N104        C119   1.339       .  A
N104        N790   1.320       .  A
N104       Co126   2.077       .  S
C105        C108   1.474       .  S
C105        N133   1.343       .  A
C105        H139   1.079       .  S
C108        C445   1.478       .  S
C108        N129   1.339       .  A
N109        N808   1.320       .  A
N110        C136   1.344       .  A
N110        N805   1.314       .  A
N110       Co126   2.075       .  S
N111        C125   1.344       .  A
N112        N140   1.329       .  A
N112        N803   1.314   1_554  A
N112       Co130   2.096       .  S
H113        C136   1.082       .  S
H114        C131   1.081       .  S
N115        N802   1.320   1_554  A
N116       Co130   2.092       .  S
N117        N129   1.311       .  A
N117        N133   1.320       .  A
N117       Co126   2.043       .  S
C118        C132   1.465       .  S
C118        C234   1.494   1_655  S
C118        N815   1.356   1_554  A
C119        C831   1.457       .  S
C119        H123   1.082       .  S
N120        C131   1.327       .  A
N120       Co130   2.070       .  S
N122        C811   1.356       .  A
C124        C373   1.481       .  S
C124        C829   1.459   1_554  S
C124        N140   1.356       .  A
Co126      Cl830   2.437       .  S
N127        C138   1.358       .  A
C128        C262   1.495       .  S
C128        N792   1.352   1_554  A
Co130      Cl137   2.443       .  S
C136        C817   1.459       .  S
Cl137      Co786   2.464   1_554  S
Cl137      Co819   2.437   1_554  S
C138        C177   1.478       .  S
C138        C812   1.457   1_554  S
C141        C178   1.470       .  S
C141        C658   1.490       .  S
C141        N159   1.348       .  A
N142        N159   1.322       .  A
N142        N164   1.323       .  A
N142       Co179   2.084       .  S
C143        C181   1.458       .  S
C143        N168   1.343       .  A
C143        H188   1.082       .  S
H144        C185   1.082       .  S
C145        C149   1.449       .  S
C145        N169   1.321       .  A
C145        H174   1.081       .  S
Co146       N164   2.096       .  S
Co146       N154   2.142       .  S
Co146       N186   2.121       .  S
Co146       N162   2.131       .  S
Co146      Cl883   2.455       .  S
N147        C185   1.346       .  A
N147        N847   1.321   1_554  A
N147       Co148   2.087       .  S
Co148       N151   2.082       .  S
Co148       N168   2.098       .  S
Co148       N155   2.083       .  S
Co148      Cl190   2.473       .  S
C149        C646   1.474       .  S
C149        N187   1.355       .  A
N150        N180   1.325       .  A
N150        N850   1.316   1_554  A
N150       Co183   2.068       .  S
N151        N169   1.318       .  A
N151        N187   1.327       .  A
N152        C874   1.359       .  A
N152        N162   1.334       .  A
H153        C178   1.080       .  S
N154        N175   1.335       .  A
N154        N840   1.321       .  A
N155        N173   1.323       .  A
N155        N160   1.328       .  A
C156        C184   1.449       .  S
C156        C526   1.470       .  S
C156        N160   1.348       .  A
N157        C172   1.345       .  A
N157        N843   1.316       .  A
N157       Co179   2.093       .  S
C158        C161   1.475       .  S
C158        N186   1.352       .  A
C158        H192   1.081       .  S
C161        C541   1.506       .  S
C161        N182   1.350       .  A
N162        N861   1.325       .  A
N163        C189   1.343       .  A
N163        N858   1.320       .  A
N163       Co179   2.104       .  S
N164        C178   1.342       .  A
N165        N193   1.326       .  A
N165        N856   1.320   1_554  A
N165       Co183   2.077       .  S
H166        C189   1.082       .  S
H167        C184   1.082       .  S
N168        N855   1.325   1_554  A
N169       Co183   2.044       .  S
N170        N182   1.324       .  A
N170        N186   1.325       .  A
N170       Co179   2.090       .  S
C171        C185   1.458       .  S
C171        C255   1.499   1_545  S
C171        N868   1.363   1_554  A
C172        C884   1.467       .  S
C172        H176   1.082       .  S
N173        C184   1.334       .  A
N173       Co183   2.069       .  S
N175        C864   1.363       .  A
C177        C882   1.467   1_554  S
C177        N193   1.349       .  A
Co179      Cl883   2.452       .  S
N180        C191   1.346       .  A
C181        C330   1.490   1_655  S
C181        N845   1.359   1_554  A
Co183      Cl190   2.435       .  S
C189        C870   1.467       .  S
Cl190      Co839   2.455   1_554  S
Cl190      Co872   2.452   1_554  S
C191        C353   1.473       .  S
C191        C865   1.467   1_554  S
C194        C231   1.455       .  S
C194        C613   1.447       .  S
C194        N212   1.340       .  A
N195        N212   1.316       .  A
N195        N217   1.321       .  A
N195       Co232   2.059       .  S
C196        C234   1.461       .  S
C196        N221   1.344       .  A
C196        H241   1.081       .  S
H197        C238   1.082       .  S
C198        C202   1.440       .  S
C198        N222   1.321       .  A
C198        H227   1.081       .  S
Co199       N217   2.071       .  S
Co199       N207   2.105       .  S
Co199       N239   2.093       .  S
Co199       N215   2.113       .  S
Co199      Cl936   2.461       .  S
N200        C238   1.349       .  A
N200        N900   1.322   1_554  A
N200       Co201   2.106       .  S
Co201       N204   2.120       .  S
Co201       N221   2.111       .  S
Co201       N208   2.066       .  S
Co201      Cl243   2.459       .  S
C202        C601   1.482       .  S
C202        N240   1.364       .  A
N203        N233   1.324       .  A
N203        N903   1.314   1_554  A
N203       Co236   2.071       .  S
N204        N222   1.319       .  A
N204        N240   1.334       .  A
N205        C927   1.358       .  A
N205        N215   1.334       .  A
H206        C231   1.081       .  S
N207        N228   1.329       .  A
N207        N893   1.322       .  A
N208        N226   1.320       .  A
N208        N213   1.319       .  A
C209        C237   1.449       .  S
C209        C574   1.442       .  S
C209        N213   1.344       .  A
N210        C225   1.340       .  A
N210        N896   1.314       .  A
N210       Co232   2.072       .  S
C211        C214   1.474       .  S
C211        N239   1.347       .  A
C211        H245   1.081       .  S
C214        C589   1.483       .  S
C214        N235   1.337       .  A
N215        N914   1.322       .  A
N216        C242   1.340       .  A
N216        N911   1.314       .  A
N216       Co232   2.077       .  S
N217        C231   1.339       .  A
N218        N246   1.326       .  A
N218        N909   1.314   1_554  A
N218       Co236   2.075       .  S
H219        C242   1.080       .  S
H220        C237   1.082       .  S
N221        N908   1.322   1_554  A
N222       Co236   2.036       .  S
N223        N235   1.311       .  A
N223        N239   1.320       .  A
N223       Co232   2.047       .  S
C224        C238   1.468       .  S
C224        C361   1.487   1_565  S
C224        N921   1.351   1_554  A
C225        C937   1.458       .  S
C225        H229   1.082       .  S
N226        C237   1.329       .  A
N226       Co236   2.053       .  S
N228        C917   1.351       .  A
C230        C350   1.472       .  S
C230        C935   1.460   1_554  S
C230        N246   1.351       .  A
Co232      Cl936   2.422       .  S
N233        C244   1.349       .  A
C234        N898   1.358   1_554  A
Co236      Cl243   2.431       .  S
C242        C923   1.460       .  S
Cl243      Co892   2.461   1_554  S
Cl243      Co925   2.422   1_554  S
C244        C247   1.461       .  S
C244        C918   1.458   1_554  S
C247        C284   1.458       .  S
C247        N958   1.347   1_554  A
N248        N265   1.323       .  A
N248        N963   1.315       .  A
N248       Co285   2.074       .  S
C249        C287   1.478       .  S
C249        N274   1.353       .  A
C249        H294   1.081       .  S
H250        C291   1.081       .  S
C251        C948   1.457       .  S
C251        N275   1.346       .  A
C251        H280   1.082       .  S
Co252       N270   2.067       .  S
Co252       N260   2.084       .  S
Co252       N292   2.098       .  S
Co252       N268   2.064       .  S
Co252      Cl296   2.445       .  S
N253        C291   1.338       .  A
N253        N260   1.322       .  A
N253       Co254   2.083       .  S
Co254       N257   2.140       .  S
Co254       N274   2.121       .  S
Co254       N261   2.108       .  S
Co254      Cl296   2.464       .  S
C255        C944   1.457   1_554  S
C255        N293   1.363       .  A
N256        N263   1.320       .  A
N256        N286   1.330       .  A
N256       Co289   2.112       .  S
N257        N293   1.335       .  A
N257        N968   1.321   1_554  A
N258        C287   1.343       .  A
N258        N268   1.317       .  A
H259        C284   1.082       .  S
N260        N281   1.324       .  A
N261        N266   1.330       .  A
N261        N972   1.326   1_554  A
C262        C983   1.471   1_554  S
C262        N266   1.352       .  A
N263        C278   1.326       .  A
N263       Co285   2.048       .  S
C264        C267   1.463       .  S
C264        N292   1.344       .  A
C264        H298   1.082       .  S
N265        C940   1.347       .  A
C267        C336   1.479       .  S
C267        N981   1.352   1_554  A
N268        N274   1.322       .  A
N269        C295   1.338       .  A
N269        N271   1.324       .  A
N269       Co285   2.074       .  S
N270        C284   1.340       .  A
N270        N941   1.315   1_554  A
N271        N299   1.327       .  A
N271       Co289   2.081       .  S
H272        C295   1.082       .  S
H273        C290   1.082       .  S
N275        N950   1.321       .  A
N275       Co289   2.087       .  S
N276        N288   1.327       .  A
N276        N985   1.321       .  A
N276       Co285   2.090       .  S
C277        C291   1.465       .  S
C277        C622   1.484       .  S
C277        N281   1.348       .  A
C278        C297   1.446       .  S
C278        H282   1.081       .  S
N279        C290   1.351       .  A
N279        N954   1.326       .  A
N279       Co289   2.130       .  S
C283        C295   1.451       .  S
C283        C469   1.465       .  S
C283        N299   1.347       .  A
Co285      Cl989   2.437       .  S
N286        C297   1.360       .  A
C287        C454   1.502       .  S
N288        C960   1.352       .  A
Co289      Cl989   2.467       .  S
C290        C955   1.471       .  S
N292        N969   1.321   1_554  A
Cl296      Co978   2.437   1_554  S
Cl296      Co982   2.467   1_554  S
C297        C634   1.478       .  S
C300        C337   1.459       .  S
C300        C565   1.451       .  S
C300        N318   1.340       .  A
N301        N318   1.315       .  A
N301        N323   1.320       .  A
N301       Co338   2.057       .  S
C302        C340   1.465       .  S
C302        N327   1.347       .  A
C302        H347   1.082       .  S
H303        C344   1.082       .  S
C304        C308   1.457       .  S
C304        N328   1.333       .  A
C304        H333   1.081       .  S
Co305       N323   2.075       .  S
Co305       N313   2.107       .  S
Co305       N345   2.092       .  S
Co305       N321   2.103       .  S
Co305     Cl1042   2.463       .  S
N306        C344   1.345       .  A
N306       N1006   1.322   1_554  A
N306       Co307   2.109       .  S
Co307       N310   2.092       .  S
Co307       N327   2.111       .  S
Co307       N314   2.098       .  S
Co307      Cl349   2.463       .  S
C308        C550   1.481       .  S
C308        N346   1.353       .  A
N309        N339   1.327       .  A
N309       N1009   1.315   1_554  A
N309       Co342   2.080       .  S
N310        N328   1.321       .  A
N310        N346   1.326       .  A
N311       C1033   1.353       .  A
N311        N321   1.330       .  A
H312        C337   1.081       .  S
N313        N334   1.332       .  A
N313        N999   1.322       .  A
N314        N332   1.319       .  A
N314        N319   1.329       .  A
C315        C343   1.443       .  S
C315        C481   1.469       .  S
C315        N319   1.359       .  A
N316        C331   1.340       .  A
N316       N1002   1.315       .  A
N316       Co338   2.077       .  S
C317        C320   1.470       .  S
C317        N345   1.345       .  A
C317        H351   1.081       .  S
C320        C493   1.479       .  S
C320        N341   1.342       .  A
N321       N1020   1.322       .  A
N322        C348   1.345       .  A
N322       N1017   1.315       .  A
N322       Co338   2.087       .  S
N323        C337   1.340       .  A
N324        N352   1.327       .  A
N324       N1015   1.315   1_554  A
N324       Co342   2.088       .  S
H325        C348   1.080       .  S
H326        C343   1.081       .  S
N327       N1014   1.322   1_554  A
N328       Co342   2.069       .  S
N329        N341   1.315       .  A
N329        N345   1.321       .  A
N329       Co338   2.062       .  S
C330        C344   1.465       .  S
C330       N1027   1.354   1_554  A
C331       C1043   1.459       .  S
C331        H335   1.082       .  S
N332        C343   1.319       .  A
N332       Co342   2.038       .  S
N334       C1023   1.354       .  A
C336       C1041   1.465   1_554  S
C336        N352   1.351       .  A
Co338     Cl1042   2.433       .  S
N339        C350   1.353       .  A
C340        C368   1.487       .  S
C340       N1004   1.353   1_554  A
Co342      Cl349   2.430       .  S
C348       C1029   1.465       .  S
Cl349      Co998   2.462   1_554  S
Cl349     Co1031   2.433   1_554  S
C350       C1024   1.459   1_554  S
C353        C390   1.468       .  S
C353       N1064   1.346   1_554  A
N354        N371   1.324       .  A
N354       N1069   1.321       .  A
N354       Co391   2.075       .  S
C355        C393   1.456       .  S
C355        N380   1.341       .  A
C355        H400   1.081       .  S
H356        C397   1.081       .  S
C357       C1054   1.467       .  S
C357        N381   1.348       .  A
C357        H386   1.082       .  S
Co358       N376   2.106       .  S
Co358       N366   2.079       .  S
Co358       N398   2.079       .  S
Co358       N374   2.091       .  S
Co358      Cl402   2.453       .  S
N359        C397   1.341       .  A
N359        N366   1.323       .  A
N359       Co360   2.079       .  S
Co360       N363   2.099       .  S
Co360       N380   2.077       .  S
Co360       N367   2.095       .  S
Co360      Cl402   2.457       .  S
C361       C1050   1.467   1_554  S
C361        N399   1.351       .  A
N362        N369   1.322       .  A
N362        N392   1.329       .  A
N362       Co395   2.101       .  S
N363        N399   1.329       .  A
N363       N1074   1.322   1_554  A
N364        C393   1.350       .  A
N364        N374   1.322       .  A
H365        C390   1.082       .  S
N366        N387   1.323       .  A
N367        N372   1.329       .  A
N367       N1078   1.321   1_554  A
C368       C1089   1.466   1_554  S
C368        N372   1.351       .  A
N369        C384   1.335       .  A
N369       Co391   2.077       .  S
C370        C373   1.458       .  S
C370        N398   1.343       .  A
C370        H404   1.082       .  S
N371       C1046   1.346       .  A
C373       N1087   1.355   1_554  A
N374        N380   1.322       .  A
N375        C401   1.336       .  A
N375        N377   1.324       .  A
N375       Co391   2.080       .  S
N376        C390   1.345       .  A
N376       N1047   1.321   1_554  A
N377        N405   1.325       .  A
N377       Co395   2.078       .  S
H378        C401   1.082       .  S
H379        C396   1.082       .  S
N381       N1056   1.322       .  A
N381       Co395   2.114       .  S
N382        N394   1.329       .  A
N382       N1091   1.319       .  A
N382       Co391   2.103       .  S
C383        C397   1.455       .  S
C383        C670   1.466       .  S
C383        N387   1.345       .  A
C384        C403   1.457       .  S
C384        H388   1.079       .  S
N385        C396   1.349       .  A
N385       N1060   1.321       .  A
N385       Co395   2.109       .  S
C389        C401   1.453       .  S
C389        C418   1.467       .  S
C389        N405   1.346       .  A
Co391     Cl1095   2.434       .  S
N392        C403   1.357       .  A
C393        C409   1.470       .  S
N394       C1066   1.355       .  A
Co395     Cl1095   2.471       .  S
C396       C1061   1.466       .  S
N398       N1075   1.319   1_554  A
Cl402     Co1084   2.434   1_554  S
Cl402     Co1088   2.471   1_554  S
C403        C685   1.495       .  S
C406        C407   1.406       .  A
C406        C411   1.407       .  A
C407        H412   1.080       .  S
C407        C408   1.393       .  A
C408        C409   1.402       .  A
C408        C415   1.445       .  S
C409        C410   1.407       .  A
C410        H413   1.084       .  S
C410        C411   1.406       .  A
C411        C414   1.443       .  S
C414        N416   1.157       .  T
C415        N417   1.157       .  T
C418        C419   1.385       .  A
C418        C423   1.415       .  A
C419        H424   1.087       .  S
C419        C420   1.386       .  A
C420        C421   1.415       .  A
C420        C427   1.430       .  S
C421        C422   1.405       .  A
C422        H425   1.084       .  S
C422        C423   1.412       .  A
C423        C426   1.443       .  S
C426        N428   1.157       .  T
C427        N429   1.153       .  T
C430        C431   1.406       .  A
C430        C435   1.414       .  A
C431        H436   1.082       .  S
C431        C432   1.405       .  A
C432        C433   1.414       .  A
C432        C439   1.443       .  S
C433        C434   1.399       .  A
C434        H437   1.085       .  S
C434        C435   1.388       .  A
C435        C438   1.442       .  S
C438        N440   1.156       .  T
C439        N441   1.157       .  T
C442        C443   1.408       .  A
C442        C447   1.410       .  A
C443        H448   1.085       .  S
C443        C444   1.396       .  A
C444        C445   1.411       .  A
C444        C451   1.442       .  S
C445        C446   1.410       .  A
C446        H449   1.085       .  S
C446        C447   1.394       .  A
C447        C450   1.446       .  S
C450        N452   1.157       .  T
C451        N453   1.158       .  T
C454        C455   1.410       .  A
C454        C459   1.425       .  A
C455        H460   1.083       .  S
C455        C456   1.412       .  A
C456        C457   1.411       .  A
C456        C463   1.442       .  S
C457        C458   1.396       .  A
C458        H461   1.085       .  S
C458        C459   1.397       .  A
C459        C462   1.445       .  S
C462        N464   1.158       .  T
C463        N465   1.157       .  T
C466        C467   1.406       .  A
C466        C471   1.429       .  A
C467        H472   1.084       .  S
C467        C468   1.415       .  A
C468        C469   1.415       .  A
C468        C475   1.441       .  S
C469        C470   1.377       .  A
C470        H473   1.088       .  S
C470        C471   1.382       .  A
C471        C474   1.436       .  S
C474        N476   1.154       .  T
C475        N477   1.157       .  T
C478        C479   1.401       .  A
C478        C483   1.412       .  A
C479        H484   1.085       .  S
C479        C480   1.384       .  A
C480        C481   1.412       .  A
C480        C487   1.448       .  S
C481        C482   1.405       .  A
C482        H485   1.084       .  S
C482        C483   1.404       .  A
C483        C486   1.443       .  S
C486        N488   1.157       .  T
C487        N489   1.158       .  T
C490        C491   1.403       .  A
C490        C495   1.416       .  A
C491        H496   1.085       .  S
C491        C492   1.390       .  A
C492        C493   1.413       .  A
C492        C499   1.446       .  S
C493        C494   1.405       .  A
C494        H497   1.084       .  S
C494        C495   1.403       .  A
C495        C498   1.444       .  S
C498        N500   1.157       .  T
C499        N501   1.157       .  T
C502        C503   1.406       .  A
C502        C507   1.421       .  A
C503        H508   1.084       .  S
C503        C504   1.413       .  A
C504        C505   1.418       .  A
C504        C511   1.442       .  S
C505        C506   1.403       .  A
C506        H509   1.085       .  S
C506        C507   1.406       .  A
C507        C510   1.443       .  S
C510        N512   1.158       .  T
C511        N513   1.157   1_655  T
C514        C515   1.383       .  A
C514        C519   1.417       .  A
C515        H520   1.087       .  S
C515        C516   1.389       .  A
C516        C517   1.424       .  A
C516        C523   1.436   1_655  S
C517        C518   1.403       .  A
C518        H521   1.084       .  S
C518        C519   1.412       .  A
C519        C522   1.440       .  S
C522        N524   1.156       .  T
C523        N525   1.156       .  T
C526        C527   1.381       .  A
C526        C531   1.414       .  A
C527        H532   1.088       .  S
C527        C528   1.386       .  A
C528        C529   1.429       .  A
C528        C535   1.437       .  S
C529        C530   1.402       .  A
C530        H533   1.084       .  S
C530        C531   1.411       .  A
C531        C534   1.434       .  S
C534        N536   1.154       .  T
C535        N537   1.157   1_655  T
C538        C539   1.410       .  A
C538        C543   1.411       .  A
C539        H544   1.085       .  S
C539        C540   1.414       .  A
C540        C541   1.415       .  A
C540        C547   1.442       .  S
C541        C542   1.410       .  A
C542        H545   1.084       .  S
C542        C543   1.405       .  A
C543        C546   1.445       .  S
C546        N548   1.157       .  T
C547        N549   1.157   1_655  T
C550        C551   1.409       .  A
C550        C555   1.411       .  A
C551        H556   1.083       .  S
C551        C552   1.395       .  A
C552        C553   1.403       .  A
C552        C559   1.445       .  S
C553        C554   1.403       .  A
C554        H557   1.085       .  S
C554        C555   1.402       .  A
C555        C558   1.444       .  S
C558        N560   1.157       .  T
C559        N561   1.157       .  T
C562        C563   1.400       .  A
C562        C567   1.414       .  A
C563        H568   1.085       .  S
C563        C564   1.396       .  A
C564        C565   1.410       .  A
C564        C571   1.445       .  S
C565        C566   1.392       .  A
C566        H569   1.086       .  S
C566        C567   1.391       .  A
C567        C570   1.441       .  S
C570        N572   1.157   1_455  T
C571        N573   1.157       .  T
C574        C575   1.388       .  A
C574        C579   1.409       .  A
C575        H580   1.086       .  S
C575        C576   1.386       .  A
C576        C577   1.415       .  A
C576        C583   1.440   1_455  S
C577        C578   1.398       .  A
C578        H581   1.085       .  S
C578        C579   1.393       .  A
C579        C582   1.445       .  S
C582        N584   1.157       .  T
C583        N585   1.158       .  T
C586        C587   1.393       .  A
C586        C591   1.408       .  A
C587        H592   1.087       .  S
C587        C588   1.388       .  A
C588        C589   1.424       .  A
C588        C595   1.446       .  S
C589        C590   1.407       .  A
C590        H593   1.083       .  S
C590        C591   1.402       .  A
C591        C594   1.443       .  S
C594        N596   1.157       .  T
C595        N597   1.157       .  T
C598        C599   1.397       .  A
C598        C603   1.413       .  A
C599        H604   1.086       .  S
C599        C600   1.393       .  A
C600        C601   1.418       .  A
C600        C607   1.447       .  S
C601        C602   1.404       .  A
C602        H605   1.084       .  S
C602        C603   1.406       .  A
C603        C606   1.443       .  S
C606        N608   1.157       .  T
C607        N609   1.158       .  T
C610        C611   1.403       .  A
C610        C615   1.423       .  A
C611        H616   1.084       .  S
C611        C612   1.395       .  A
C612        C613   1.407       .  A
C612        C619   1.445       .  S
C613        C614   1.390       .  A
C614        H617   1.086       .  S
C614        C615   1.389       .  A
C615        C618   1.447       .  S
C618        N620   1.158   1_565  T
C619        N621   1.157       .  T
C622        C623   1.408       .  A
C622        C627   1.406       .  A
C623        H628   1.084       .  S
C623        C624   1.406       .  A
C624        C625   1.410       .  A
C624        C631   1.443       .  S
C625        C626   1.402       .  A
C626        H629   1.069       .  S
C626        C627   1.400       .  A
C627        C630   1.444       .  S
C630        N632   1.157   1_565  T
C631        N633   1.157       .  T
C634        C635   1.406       .  A
C634        C639   1.415       .  A
C635        H640   1.084       .  S
C635        C636   1.406       .  A
C636        C637   1.410       .  A
C636        C643   1.443       .  S
C637        C638   1.395       .  A
C638        H641   1.080       .  S
C638        C639   1.391       .  A
C639        C642   1.446       .  S
C642        N644   1.158       .  T
C643        N645   1.157       .  T
C646        C647   1.405       .  A
C646        C651   1.416       .  A
C647        H652   1.082       .  S
C647        C648   1.382       .  A
C648        C649   1.398       .  A
C648        C655   1.441       .  S
C649        C650   1.399       .  A
C650        H653   1.083       .  S
C650        C651   1.402       .  A
C651        C654   1.443       .  S
C654        N656   1.158       .  T
C655        N657   1.156       .  T
C658        C659   1.411       .  A
C658        C663   1.410       .  A
C659        H664   1.084       .  S
C659        C660   1.404       .  A
C660        C661   1.412       .  A
C660        C667   1.444       .  S
C661        C662   1.411       .  A
C662        H665   1.082       .  S
C662        C663   1.400       .  A
C663        C666   1.444       .  S
C666        N668   1.157       .  T
C667        N669   1.157       .  T
C670        C671   1.385       .  A
C670        C675   1.412       .  A
C671        H676   1.087       .  S
C671        C672   1.390       .  A
C672        C673   1.424       .  A
C672        C679   1.436       .  S
C673        C674   1.404       .  A
C674        H677   1.084       .  S
C674        C675   1.408       .  A
C675        C678   1.440       .  S
C678        N680   1.156       .  T
C679        N681   1.157   1_545  T
C682        C683   1.402       .  A
C682        C687   1.426       .  A
C683        H688   1.085       .  S
C683        C684   1.404       .  A
C684        C685   1.422       .  A
C684        C691   1.442       .  S
C685        C686   1.399       .  A
C686        H689   1.085       .  S
C686        C687   1.402       .  A
C687        C690   1.445       .  S
C690        N692   1.157   1_545  T
C691        N693   1.158       .  T
O694        C702   1.262   1_545  A
O694       Co714   1.972       .  S
O695        C703   1.284       .  A
O695       Co715   2.075   1_565  S
O696        C704   1.259       .  A
O696       Co716   1.984       .  S
O697        C705   1.275       .  A
O697       Co717   1.975       .  S
O698        C704   1.254       .  A
O698       Co715   1.959   1_565  S
O699        C705   1.279       .  A
O699       Co714   2.013   1_565  S
O700        C703   1.269       .  A
O700       Co717   1.930       .  S
O701        C702   1.270       .  A
O701       Co716   1.982       .  S
C702       C1303   1.472       .  S
C703       C1318   1.480       .  S
C704       C1291   1.467       .  S
C705       C1330   1.467       .  S
O706        C719   1.260       .  A
O706       Co714   1.965       .  S
O707        C720   1.266       .  A
O707       Co715   1.972       .  S
O708        C721   1.268       .  A
O708       Co716   2.006   1_545  S
O709        C722   1.288       .  A
O709       Co717   2.094   1_545  S
O710        C722   1.260       .  A
O710       Co715   1.873       .  S
O711        C721   1.268       .  A
O711       Co714   1.973       .  S
O712        C719   1.259       .  A
O712       Co717   1.991   1_545  S
O713        C720   1.276       .  A
O713       Co716   2.039   1_545  S
Co714       O718   2.016       .  S
Co715       O718   1.973       .  S
Co716       O718   2.076   1_565  S
Co717       O718   2.055   1_565  S
C719       C1354   1.494       .  S
C720       C1366   1.484       .  S
C721       C1375   1.498       .  S
C722       C1342   1.456       .  S
O723        C731   1.252       .  A
O723       Co743   1.945   1_655  S
O724        C732   1.249       .  A
O724       Co744   1.935       .  S
O725        C733   1.286       .  A
O725       Co745   2.047   1_655  S
O726        C734   1.287       .  A
O726       Co746   2.046   1_655  S
O727        C733   1.266       .  A
O727       Co744   1.982       .  S
O728        C734   1.264       .  A
O728       Co743   1.975   1_655  S
O729        C732   1.279       .  A
O729       Co746   2.058   1_655  S
O730        C731   1.281       .  A
O730       Co745   2.057   1_655  S
C731       C1210   1.485       .  S
C732       C1222   1.489       .  S
C733       C1198   1.492       .  S
C734       C1231   1.488       .  S
O735        C748   1.249       .  A
O735       Co743   1.967       .  S
O736        C749   1.246       .  A
O736       Co744   1.963   1_455  S
O737        C750   1.257       .  A
O737       Co745   1.901       .  S
O738        C751   1.259       .  A
O738       Co746   1.908       .  S
O739        C751   1.285       .  A
O739       Co744   2.076   1_455  S
O740        C750   1.290       .  A
O740       Co743   2.066       .  S
O741        C748   1.244       .  A
O741       Co746   1.970       .  S
O742        C749   1.241       .  A
O742       Co745   1.964       .  S
Co743       O747   2.084   1_455  S
Co744       O747   2.082       .  S
Co745       O747   2.017   1_455  S
Co746       O747   2.027   1_455  S
C748       C1255   1.460       .  S
C749       C1270   1.453       .  S
C750       C1279   1.462       .  S
C751       C1246   1.462       .  S
O752        C760   1.282       .  A
O752       Co772   2.038       .  S
O753        C761   1.248       .  A
O753       Co773   1.962       .  S
O754        C762   1.247       .  A
O754       Co774   1.996       .  S
O755        C763   1.271       .  A
O755       Co775   1.867       .  S
O756        C762   1.252       .  A
O756       Co773   1.965       .  S
O757        C763   1.301       .  A
O757       Co772   2.075       .  S
O758        C761   1.249       .  A
O758       Co775   2.001       .  S
O759        C760   1.278       .  A
O759       Co774   1.977       .  S
C760       C1114   1.481       .  S
C761       C1123   1.482       .  S
C762       C1099   1.477       .  S
C763       C1135   1.477       .  S
O764        C777   1.254       .  A
O764       Co772   1.972       .  S
O765        C778   1.271       .  A
O765       Co773   1.966       .  S
O766        C779   1.263       .  A
O766       Co774   1.958       .  S
O767        C780   1.284       .  A
O767       Co775   2.019       .  S
O768        C780   1.276       .  A
O768       Co773   1.999       .  S
O769        C779   1.278       .  A
O769       Co772   2.060       .  S
O770        C777   1.265       .  A
O770       Co775   1.992       .  S
O771        C778   1.276       .  A
O771       Co774   1.988       .  S
Co772       O776   2.137       .  S
Co773       O776   2.006       .  S
Co774       O776   1.999       .  S
Co775       O776   1.961       .  S
C777       C1159   1.492       .  S
C778       C1171   1.463       .  S
C779       C1183   1.482       .  S
C780       C1150   1.478       .  S
C781        C818   1.457       .  S
C781       C1207   1.472       .  S
C781        N799   1.343       .  A
N782        N799   1.324       .  A
N782        N804   1.324       .  A
N782       Co819   2.073       .  S
C783        C821   1.470       .  S
C783        N808   1.351       .  A
C783        H828   1.082       .  S
H784        C825   1.082       .  S
C785        C789   1.464       .  S
C785        N809   1.340       .  A
C785        H814   1.080       .  S
Co786       N804   2.082       .  S
Co786       N794   2.121       .  S
Co786       N826   2.094       .  S
Co786       N802   2.095       .  S
N787        C825   1.345       .  A
N787       Co788   2.116       .  S
Co788       N791   2.113       .  S
Co788       N808   2.119       .  S
Co788       N795   2.087       .  S
Co788      Cl830   2.467       .  S
C789       C1195   1.508       .  S
C789        N827   1.357       .  A
N790        N820   1.329       .  A
N790       Co823   2.112       .  S
N791        N809   1.324       .  A
N791        N827   1.333       .  A
N792        N802   1.331       .  A
H793        C818   1.081       .  S
N794        N815   1.333       .  A
N795        N813   1.322       .  A
N795        N800   1.327       .  A
C796        C824   1.455       .  S
C796       C1126   1.478       .  S
C796        N800   1.354       .  A
N797        C812   1.339       .  A
N797       Co819   2.077       .  S
C798        C801   1.474       .  S
C798        N826   1.343       .  A
C798        H832   1.079       .  S
C801       C1138   1.478       .  S
C801        N822   1.339       .  A
N803        C829   1.344       .  A
N803       Co819   2.075       .  S
N804        C818   1.344       .  A
N805        N833   1.329       .  A
N805       Co823   2.096       .  S
H806        C829   1.082       .  S
H807        C824   1.081       .  S
N809       Co823   2.092       .  S
N810        N822   1.311       .  A
N810        N826   1.320       .  A
N810       Co819   2.043       .  S
C811        C825   1.465       .  S
C811        C927   1.494   1_655  S
C812        H816   1.082       .  S
N813        C824   1.327       .  A
N813       Co823   2.070       .  S
C817       C1066   1.481       .  S
C817        N833   1.356       .  A
N820        C831   1.358       .  A
C821        C955   1.495       .  S
Co823      Cl830   2.443       .  S
C831        C870   1.478       .  S
C834        C871   1.470       .  S
C834       C1351   1.490       .  S
C834        N852   1.348       .  A
N835        N852   1.322       .  A
N835        N857   1.323       .  A
N835       Co872   2.084       .  S
C836        C874   1.458       .  S
C836        N861   1.343       .  A
C836        H881   1.082       .  S
H837        C878   1.082       .  S
C838        C842   1.449       .  S
C838        N862   1.321       .  A
C838        H867   1.081       .  S
Co839       N857   2.096       .  S
Co839       N847   2.142       .  S
Co839       N879   2.121       .  S
Co839       N855   2.131       .  S
N840        C878   1.346       .  A
N840       Co841   2.087       .  S
Co841       N844   2.082       .  S
Co841       N861   2.098       .  S
Co841       N848   2.083       .  S
Co841      Cl883   2.473       .  S
C842       C1339   1.474       .  S
C842        N880   1.355       .  A
N843        N873   1.325       .  A
N843       Co876   2.068       .  S
N844        N862   1.318       .  A
N844        N880   1.327       .  A
N845        N855   1.334       .  A
H846        C871   1.080       .  S
N847        N868   1.335       .  A
N848        N866   1.323       .  A
N848        N853   1.328       .  A
C849        C877   1.449       .  S
C849       C1219   1.470       .  S
C849        N853   1.348       .  A
N850        C865   1.345       .  A
N850       Co872   2.093       .  S
C851        C854   1.475       .  S
C851        N879   1.352       .  A
C851        H885   1.081       .  S
C854       C1234   1.506       .  S
C854        N875   1.350       .  A
N856        C882   1.343       .  A
N856       Co872   2.104       .  S
N857        C871   1.342       .  A
N858        N886   1.326       .  A
N858       Co876   2.077       .  S
H859        C882   1.082       .  S
H860        C877   1.082       .  S
N862       Co876   2.044       .  S
N863        N875   1.324       .  A
N863        N879   1.325       .  A
N863       Co872   2.090       .  S
C864        C878   1.458       .  S
C864        C948   1.499   1_545  S
C865        H869   1.082       .  S
N866        C877   1.334       .  A
N866       Co876   2.069       .  S
C870        N886   1.349       .  A
N873        C884   1.346       .  A
C874       C1023   1.490   1_655  S
Co876      Cl883   2.435       .  S
C884       C1046   1.473       .  S
C887        C924   1.455       .  S
C887       C1306   1.447       .  S
C887        N905   1.340       .  A
N888        N905   1.316       .  A
N888        N910   1.321       .  A
N888       Co925   2.059       .  S
C889        C927   1.461       .  S
C889        N914   1.344       .  A
C889        H934   1.081       .  S
H890        C931   1.082       .  S
C891        C895   1.440       .  S
C891        N915   1.321       .  A
C891        H920   1.081       .  S
Co892       N910   2.071       .  S
Co892       N900   2.105       .  S
Co892       N932   2.093       .  S
Co892       N908   2.114       .  S
N893        C931   1.349       .  A
N893       Co894   2.106       .  S
Co894       N897   2.120       .  S
Co894       N914   2.111       .  S
Co894       N901   2.066       .  S
Co894      Cl936   2.459       .  S
C895       C1294   1.482       .  S
C895        N933   1.364       .  A
N896        N926   1.324       .  A
N896       Co929   2.071       .  S
N897        N915   1.319       .  A
N897        N933   1.334       .  A
N898        N908   1.334       .  A
H899        C924   1.081       .  S
N900        N921   1.329       .  A
N901        N919   1.320       .  A
N901        N906   1.319       .  A
C902        C930   1.449       .  S
C902       C1267   1.442       .  S
C902        N906   1.344       .  A
N903        C918   1.340       .  A
N903       Co925   2.072       .  S
C904        C907   1.474       .  S
C904        N932   1.347       .  A
C904        H938   1.081       .  S
C907       C1282   1.483       .  S
C907        N928   1.337       .  A
N909        C935   1.340       .  A
N909       Co925   2.077       .  S
N910        C924   1.339       .  A
N911        N939   1.326       .  A
N911       Co929   2.075       .  S
H912        C935   1.080       .  S
H913        C930   1.082       .  S
N915       Co929   2.036       .  S
N916        N928   1.311       .  A
N916        N932   1.320       .  A
N916       Co925   2.047       .  S
C917        C931   1.468       .  S
C917       C1054   1.487   1_565  S
C918        H922   1.082       .  S
N919        C930   1.329       .  A
N919       Co929   2.053       .  S
C923       C1043   1.472       .  S
C923        N939   1.351       .  A
N926        C937   1.349       .  A
Co929      Cl936   2.431       .  S
C937        C940   1.461       .  S
C940        C977   1.458       .  S
N941        N958   1.323       .  A
N941       Co978   2.074       .  S
C942        C980   1.478       .  S
C942        N967   1.353       .  A
C942        H987   1.081       .  S
H943        C984   1.081       .  S
C944        N968   1.346       .  A
C944        H973   1.082       .  S
Co945       N963   2.067       .  S
Co945       N953   2.085       .  S
Co945       N985   2.098       .  S
Co945       N961   2.064       .  S
Co945      Cl989   2.445       .  S
N946        C984   1.338       .  A
N946        N953   1.322       .  A
N946       Co947   2.083       .  S
Co947       N950   2.140       .  S
Co947       N967   2.121       .  S
Co947       N954   2.108       .  S
Co947      Cl989   2.464       .  S
C948        N986   1.363       .  A
N949        N956   1.320       .  A
N949        N979   1.330       .  A
N949       Co982   2.112       .  S
N950        N986   1.335       .  A
N951        C980   1.343       .  A
N951        N961   1.317       .  A
H952        C977   1.082       .  S
N953        N974   1.324       .  A
N954        N959   1.330       .  A
C955        N959   1.352       .  A
N956        C971   1.326       .  A
N956       Co978   2.048       .  S
C957        C960   1.463       .  S
C957        N985   1.344       .  A
C957        H991   1.082       .  S
C960       C1029   1.479       .  S
N961        N967   1.322       .  A
N962        C988   1.338       .  A
N962        N964   1.324       .  A
N962       Co978   2.074       .  S
N963        C977   1.340       .  A
N964        N992   1.327       .  A
N964       Co982   2.081       .  S
H965        C988   1.082       .  S
H966        C983   1.082       .  S
N968       Co982   2.087       .  S
N969        N981   1.327       .  A
N969       Co978   2.090       .  S
C970        C984   1.465       .  S
C970       C1315   1.484       .  S
C970        N974   1.348       .  A
C971        C990   1.446       .  S
C971        H975   1.081       .  S
N972        C983   1.351       .  A
N972       Co982   2.130       .  S
C976        C988   1.451       .  S
C976       C1162   1.465       .  S
C976        N992   1.347       .  A
N979        C990   1.360       .  A
C980       C1147   1.502       .  S
C990       C1327   1.478       .  S
C993       C1030   1.459       .  S
C993       C1258   1.451       .  S
C993       N1011   1.340       .  A
N994       N1011   1.315       .  A
N994       N1016   1.320       .  A
N994      Co1031   2.057       .  S
C995       C1033   1.465       .  S
C995       N1020   1.347       .  A
C995       H1040   1.082       .  S
H996       C1037   1.082       .  S
C997       C1001   1.457       .  S
C997       N1021   1.333       .  A
C997       H1026   1.081       .  S
Co998      N1016   2.075       .  S
Co998      N1006   2.107       .  S
Co998      N1038   2.092       .  S
Co998      N1014   2.103       .  S
N999       C1037   1.345       .  A
N999      Co1000   2.109       .  S
Co1000     N1003   2.092       .  S
Co1000     N1020   2.111       .  S
Co1000     N1007   2.098       .  S
Co1000    Cl1042   2.463       .  S
C1001      C1243   1.481       .  S
C1001      N1039   1.353       .  A
N1002      N1032   1.327       .  A
N1002     Co1035   2.080       .  S
N1003      N1021   1.321       .  A
N1003      N1039   1.326       .  A
N1004      N1014   1.330       .  A
H1005      C1030   1.081       .  S
N1006      N1027   1.332       .  A
N1007      N1025   1.319       .  A
N1007      N1012   1.329       .  A
C1008      C1036   1.443       .  S
C1008      C1174   1.469       .  S
C1008      N1012   1.359       .  A
N1009      C1024   1.340       .  A
N1009     Co1031   2.077       .  S
C1010      C1013   1.470       .  S
C1010      N1038   1.345       .  A
C1010      H1044   1.081       .  S
C1013      C1186   1.479       .  S
C1013      N1034   1.342       .  A
N1015      C1041   1.345       .  A
N1015     Co1031   2.087       .  S
N1016      C1030   1.340       .  A
N1017      N1045   1.327       .  A
N1017     Co1035   2.088       .  S
H1018      C1041   1.080       .  S
H1019      C1036   1.081       .  S
N1021     Co1035   2.069       .  S
N1022      N1034   1.315       .  A
N1022      N1038   1.321       .  A
N1022     Co1031   2.062       .  S
C1023      C1037   1.465       .  S
C1024      H1028   1.082       .  S
N1025      C1036   1.319       .  A
N1025     Co1035   2.038       .  S
C1029      N1045   1.351       .  A
N1032      C1043   1.353       .  A
C1033      C1061   1.487       .  S
Co1035    Cl1042   2.430       .  S
C1046      C1083   1.468       .  S
N1047      N1064   1.324       .  A
N1047     Co1084   2.075       .  S
C1048      C1086   1.456       .  S
C1048      N1073   1.341       .  A
C1048      H1093   1.081       .  S
H1049      C1090   1.081       .  S
C1050      N1074   1.348       .  A
C1050      H1079   1.082       .  S
Co1051     N1069   2.106       .  S
Co1051     N1059   2.079       .  S
Co1051     N1091   2.079       .  S
Co1051     N1067   2.091       .  S
Co1051    Cl1095   2.453       .  S
N1052      C1090   1.341       .  A
N1052      N1059   1.323       .  A
N1052     Co1053   2.079       .  S
Co1053     N1056   2.099       .  S
Co1053     N1073   2.077       .  S
Co1053     N1060   2.095       .  S
Co1053    Cl1095   2.457       .  S
C1054      N1092   1.351       .  A
N1055      N1062   1.322       .  A
N1055      N1085   1.329       .  A
N1055     Co1088   2.101       .  S
N1056      N1092   1.329       .  A
N1057      C1086   1.350       .  A
N1057      N1067   1.322       .  A
H1058      C1083   1.082       .  S
N1059      N1080   1.323       .  A
N1060      N1065   1.329       .  A
C1061      N1065   1.351       .  A
N1062      C1077   1.335       .  A
N1062     Co1084   2.077       .  S
C1063      C1066   1.458       .  S
C1063      N1091   1.343       .  A
C1063      H1097   1.082       .  S
N1067      N1073   1.322       .  A
N1068      C1094   1.336       .  A
N1068      N1070   1.324       .  A
N1068     Co1084   2.080       .  S
N1069      C1083   1.345       .  A
N1070      N1098   1.325       .  A
N1070     Co1088   2.078       .  S
H1071      C1094   1.082       .  S
H1072      C1089   1.082       .  S
N1074     Co1088   2.114       .  S
N1075      N1087   1.329       .  A
N1075     Co1084   2.103       .  S
C1076      C1090   1.455       .  S
C1076      C1363   1.466       .  S
C1076      N1080   1.345       .  A
C1077      C1096   1.457       .  S
C1077      H1081   1.079       .  S
N1078      C1089   1.349       .  A
N1078     Co1088   2.109       .  S
C1082      C1094   1.453       .  S
C1082      C1111   1.467       .  S
C1082      N1098   1.346       .  A
N1085      C1096   1.357       .  A
C1086      C1102   1.470       .  S
C1096      C1378   1.495       .  S
C1099      C1100   1.406       .  A
C1099      C1104   1.407       .  A
C1100      H1105   1.080       .  S
C1100      C1101   1.393       .  A
C1101      C1102   1.402       .  A
C1101      C1108   1.445       .  S
C1102      C1103   1.407       .  A
C1103      H1106   1.084       .  S
C1103      C1104   1.406       .  A
C1104      C1107   1.443       .  S
C1107      N1109   1.157       .  T
C1108      N1110   1.157       .  T
C1111      C1112   1.385       .  A
C1111      C1116   1.415       .  A
C1112      H1117   1.087       .  S
C1112      C1113   1.386       .  A
C1113      C1114   1.415       .  A
C1113      C1120   1.430       .  S
C1114      C1115   1.405       .  A
C1115      H1118   1.084       .  S
C1115      C1116   1.412       .  A
C1116      C1119   1.443       .  S
C1119      N1121   1.157       .  T
C1120      N1122   1.153       .  T
C1123      C1124   1.406       .  A
C1123      C1128   1.414       .  A
C1124      H1129   1.082       .  S
C1124      C1125   1.405       .  A
C1125      C1126   1.414       .  A
C1125      C1132   1.443       .  S
C1126      C1127   1.399       .  A
C1127      H1130   1.085       .  S
C1127      C1128   1.388       .  A
C1128      C1131   1.442       .  S
C1131      N1133   1.156       .  T
C1132      N1134   1.157       .  T
C1135      C1136   1.408       .  A
C1135      C1140   1.410       .  A
C1136      H1141   1.085       .  S
C1136      C1137   1.396       .  A
C1137      C1138   1.411       .  A
C1137      C1144   1.442       .  S
C1138      C1139   1.410       .  A
C1139      H1142   1.085       .  S
C1139      C1140   1.394       .  A
C1140      C1143   1.446       .  S
C1143      N1145   1.157       .  T
C1144      N1146   1.158       .  T
C1147      C1148   1.410       .  A
C1147      C1152   1.425       .  A
C1148      H1153   1.083       .  S
C1148      C1149   1.412       .  A
C1149      C1150   1.411       .  A
C1149      C1156   1.442       .  S
C1150      C1151   1.396       .  A
C1151      H1154   1.085       .  S
C1151      C1152   1.397       .  A
C1152      C1155   1.445       .  S
C1155      N1157   1.158       .  T
C1156      N1158   1.157       .  T
C1159      C1160   1.406       .  A
C1159      C1164   1.429       .  A
C1160      H1165   1.084       .  S
C1160      C1161   1.415       .  A
C1161      C1162   1.415       .  A
C1161      C1168   1.441       .  S
C1162      C1163   1.377       .  A
C1163      H1166   1.088       .  S
C1163      C1164   1.382       .  A
C1164      C1167   1.436       .  S
C1167      N1169   1.154       .  T
C1168      N1170   1.157       .  T
C1171      C1172   1.401       .  A
C1171      C1176   1.412       .  A
C1172      H1177   1.085       .  S
C1172      C1173   1.384       .  A
C1173      C1174   1.412       .  A
C1173      C1180   1.448       .  S
C1174      C1175   1.405       .  A
C1175      H1178   1.084       .  S
C1175      C1176   1.404       .  A
C1176      C1179   1.443       .  S
C1179      N1181   1.157       .  T
C1180      N1182   1.158       .  T
C1183      C1184   1.403       .  A
C1183      C1188   1.416       .  A
C1184      H1189   1.085       .  S
C1184      C1185   1.390       .  A
C1185      C1186   1.413       .  A
C1185      C1192   1.446       .  S
C1186      C1187   1.405       .  A
C1187      H1190   1.084       .  S
C1187      C1188   1.403       .  A
C1188      C1191   1.444       .  S
C1191      N1193   1.157       .  T
C1192      N1194   1.157       .  T
C1195      C1196   1.406       .  A
C1195      C1200   1.421       .  A
C1196      H1201   1.084       .  S
C1196      C1197   1.413       .  A
C1197      C1198   1.418       .  A
C1197      C1204   1.442       .  S
C1198      C1199   1.403       .  A
C1199      H1202   1.085       .  S
C1199      C1200   1.406       .  A
C1200      C1203   1.443       .  S
C1203      N1205   1.158       .  T
C1204      N1206   1.157   1_655  T
C1207      C1208   1.383       .  A
C1207      C1212   1.417       .  A
C1208      H1213   1.087       .  S
C1208      C1209   1.389       .  A
C1209      C1210   1.424       .  A
C1209      C1216   1.436   1_655  S
C1210      C1211   1.403       .  A
C1211      H1214   1.084       .  S
C1211      C1212   1.412       .  A
C1212      C1215   1.440       .  S
C1215      N1217   1.156       .  T
C1216      N1218   1.156       .  T
C1219      C1220   1.381       .  A
C1219      C1224   1.414       .  A
C1220      H1225   1.088       .  S
C1220      C1221   1.386       .  A
C1221      C1222   1.429       .  A
C1221      C1228   1.437       .  S
C1222      C1223   1.402       .  A
C1223      H1226   1.084       .  S
C1223      C1224   1.411       .  A
C1224      C1227   1.434       .  S
C1227      N1229   1.154       .  T
C1228      N1230   1.157   1_655  T
C1231      C1232   1.410       .  A
C1231      C1236   1.411       .  A
C1232      H1237   1.085       .  S
C1232      C1233   1.414       .  A
C1233      C1234   1.415       .  A
C1233      C1240   1.442       .  S
C1234      C1235   1.410       .  A
C1235      H1238   1.084       .  S
C1235      C1236   1.405       .  A
C1236      C1239   1.445       .  S
C1239      N1241   1.157       .  T
C1240      N1242   1.157   1_655  T
C1243      C1244   1.409       .  A
C1243      C1248   1.411       .  A
C1244      H1249   1.083       .  S
C1244      C1245   1.395       .  A
C1245      C1246   1.403       .  A
C1245      C1252   1.445       .  S
C1246      C1247   1.403       .  A
C1247      H1250   1.085       .  S
C1247      C1248   1.402       .  A
C1248      C1251   1.444       .  S
C1251      N1253   1.157       .  T
C1252      N1254   1.157       .  T
C1255      C1256   1.400       .  A
C1255      C1260   1.414       .  A
C1256      H1261   1.085       .  S
C1256      C1257   1.396       .  A
C1257      C1258   1.410       .  A
C1257      C1264   1.445       .  S
C1258      C1259   1.392       .  A
C1259      H1262   1.086       .  S
C1259      C1260   1.391       .  A
C1260      C1263   1.441       .  S
C1263      N1265   1.157   1_455  T
C1264      N1266   1.157       .  T
C1267      C1268   1.388       .  A
C1267      C1272   1.409       .  A
C1268      H1273   1.086       .  S
C1268      C1269   1.386       .  A
C1269      C1270   1.415       .  A
C1269      C1276   1.440   1_455  S
C1270      C1271   1.398       .  A
C1271      H1274   1.085       .  S
C1271      C1272   1.393       .  A
C1272      C1275   1.445       .  S
C1275      N1277   1.157       .  T
C1276      N1278   1.158       .  T
C1279      C1280   1.393       .  A
C1279      C1284   1.408       .  A
C1280      H1285   1.087       .  S
C1280      C1281   1.388       .  A
C1281      C1282   1.424       .  A
C1281      C1288   1.446       .  S
C1282      C1283   1.407       .  A
C1283      H1286   1.083       .  S
C1283      C1284   1.402       .  A
C1284      C1287   1.443       .  S
C1287      N1289   1.157       .  T
C1288      N1290   1.157       .  T
C1291      C1292   1.397       .  A
C1291      C1296   1.413       .  A
C1292      H1297   1.086       .  S
C1292      C1293   1.393       .  A
C1293      C1294   1.418       .  A
C1293      C1300   1.447       .  S
C1294      C1295   1.404       .  A
C1295      H1298   1.084       .  S
C1295      C1296   1.406       .  A
C1296      C1299   1.443       .  S
C1299      N1301   1.157       .  T
C1300      N1302   1.158       .  T
C1303      C1304   1.403       .  A
C1303      C1308   1.423       .  A
C1304      H1309   1.084       .  S
C1304      C1305   1.395       .  A
C1305      C1306   1.407       .  A
C1305      C1312   1.445       .  S
C1306      C1307   1.390       .  A
C1307      H1310   1.086       .  S
C1307      C1308   1.389       .  A
C1308      C1311   1.447       .  S
C1311      N1313   1.158   1_565  T
C1312      N1314   1.157       .  T
C1315      C1316   1.408       .  A
C1315      C1320   1.406       .  A
C1316      H1321   1.084       .  S
C1316      C1317   1.406       .  A
C1317      C1318   1.410       .  A
C1317      C1324   1.443       .  S
C1318      C1319   1.402       .  A
C1319      H1322   1.071       .  S
C1319      C1320   1.400       .  A
C1320      C1323   1.444       .  S
C1323      N1325   1.157   1_565  T
C1324      N1326   1.157       .  T
C1327      C1328   1.406       .  A
C1327      C1332   1.415       .  A
C1328      H1333   1.084       .  S
C1328      C1329   1.406       .  A
C1329      C1330   1.410       .  A
C1329      C1336   1.443       .  S
C1330      C1331   1.395       .  A
C1331      H1334   1.080       .  S
C1331      C1332   1.391       .  A
C1332      C1335   1.446       .  S
C1335      N1337   1.158       .  T
C1336      N1338   1.157       .  T
C1339      C1340   1.405       .  A
C1339      C1344   1.416       .  A
C1340      H1345   1.082       .  S
C1340      C1341   1.382       .  A
C1341      C1342   1.398       .  A
C1341      C1348   1.441       .  S
C1342      C1343   1.399       .  A
C1343      H1346   1.083       .  S
C1343      C1344   1.402       .  A
C1344      C1347   1.443       .  S
C1347      N1349   1.158       .  T
C1348      N1350   1.156       .  T
C1351      C1352   1.411       .  A
C1351      C1356   1.410       .  A
C1352      H1357   1.084       .  S
C1352      C1353   1.404       .  A
C1353      C1354   1.412       .  A
C1353      C1360   1.444       .  S
C1354      C1355   1.411       .  A
C1355      H1358   1.082       .  S
C1355      C1356   1.400       .  A
C1356      C1359   1.444       .  S
C1359      N1361   1.157       .  T
C1360      N1362   1.157       .  T
C1363      C1364   1.385       .  A
C1363      C1368   1.412       .  A
C1364      H1369   1.087       .  S
C1364      C1365   1.391       .  A
C1365      C1366   1.424       .  A
C1365      C1372   1.436       .  S
C1366      C1367   1.404       .  A
C1367      H1370   1.084       .  S
C1367      C1368   1.408       .  A
C1368      C1371   1.440       .  S
C1371      N1373   1.156       .  T
C1372      N1374   1.157   1_545  T
C1375      C1376   1.402       .  A
C1375      C1380   1.426       .  A
C1376      H1381   1.085       .  S
C1376      C1377   1.404       .  A
C1377      C1378   1.422       .  A
C1377      C1384   1.442       .  S
C1378      C1379   1.399       .  A
C1379      H1382   1.085       .  S
C1379      C1380   1.402       .  A
C1380      C1383   1.445       .  S
C1383      N1385   1.157   1_545  T
C1384      N1386   1.158       .  T
