geometry optimzed in LAMMPS
_audit_creation_date              2020-11-30 
_audit_creation_method            'lammps2cif' 
_symmetry_space_group_name_H-M    'P1' 
_symmetry_Int_Tables_number       1 
_symmetry_cell_setting            triclinic 
loop_ 
_symmetry_equiv_pos_as_xyz 
  x,y,z 
_cell_length_a                    40.04073528 
_cell_length_b                    40.46813293371494 
_cell_length_c                    38.73786788893894 
_cell_angle_alpha                 86.94347421460131 
_cell_angle_beta                  89.54183756690877 
_cell_angle_gamma                 90.18235585901849 
loop_ 
_atom_site_label 
_atom_site_type_symbol 
_atom_site_fract_x 
_atom_site_fract_y 
_atom_site_fract_z 
_atom_site_charge 
C1          C  0.56178808  0.15243720  0.51661940     0.79700
N2          N  0.57806841  0.14996430  0.48599656    -0.78600
C3          C  0.61050299  0.14118230  0.48475178     0.82200
N4          N  0.62701129  0.13488009  0.01463667    -0.78500
C5          C  0.61176350  0.13725610  0.04579497     0.82300
N6          N  0.57883085  0.14628903  0.04689302    -0.80200
Fe7        Fe  0.80650324  0.14188569  0.22048944     1.65800
Fe8        Fe  0.81567697  0.14224373  0.30811626     1.73200
Fe9        Fe  0.75649868  0.19120815  0.26832769     1.54400
O10         O  0.77808998  0.22205615  0.23034672    -0.82200
O11         O  0.77186611  0.13636345  0.33523837    -0.80500
O12         O  0.80739863  0.18900407  0.19711579    -0.84700
O13         O  0.75782967  0.13482464  0.20359162    -0.79500
O14         O  0.77993358  0.21846540  0.30511482    -0.81300
O15         O  0.81131823  0.09398137  0.29635319    -0.84100
C16         C  0.73013565  0.14907419  0.20898295     0.96700
C17         C  0.79590636  0.21727335  0.20377720     1.04100
O18         O  0.79282874  0.15844330  0.26553664    -1.13000
O19         O  0.86270198  0.14617236  0.28726641    -0.75500
O20         O  0.85723848  0.14812105  0.23016533    -0.79000
O21         O  0.72677234  0.16985901  0.23212511    -0.79600
C22         C  0.87498829  0.14929967  0.25713823     0.95600
O23         O  0.80628512  0.09259031  0.23927812    -0.77600
O24         O  0.82248746  0.18852783  0.32551108    -0.82800
C25         C  0.74160023  0.14479770  0.33174698     0.98200
C26         C  0.80518041  0.21464315  0.32450617     1.04200
O27         O  0.73143291  0.16333092  0.30651564    -0.78400
C28         C  0.80748802  0.07825474  0.26932507     1.02500
C29         C  0.78728989  0.38391806  0.00853601     0.79700
N30         N  0.78970316  0.37095806  0.47692909    -0.78600
C31         C  0.80186467  0.34007438  0.47366761     0.82200
N32         N  0.81121622  0.32191711  0.00234245    -0.78500
C33         C  0.80854843  0.33419321  0.03414648     0.82300
N34         N  0.79652240  0.36530531  0.03714958    -0.80200
C35         C  0.77252747  0.88397438  0.26548384     0.79700
N36         N  0.77125046  0.86584231  0.23719015    -0.78600
C37         C  0.76461605  0.83307743  0.23992780     0.82200
N38         N  0.75923758  0.81789691  0.27162677    -0.78500
C39         C  0.76110985  0.83556835  0.30054000     0.82300
N40         N  0.76791585  0.86863848  0.29732586    -0.80200
Fe41       Fe  0.74632405  0.63751481  0.07674129     1.65800
Fe42       Fe  0.74479485  0.63305107  0.48941915     1.73200
Fe43       Fe  0.79666553  0.68843787  0.52504723     1.54400
O44         O  0.77642297  0.71618175  0.06389053    -0.82200
O45         O  0.79162982  0.62241352  0.47106976    -0.80500
O46         O  0.73825163  0.68438683  0.09156715    -0.84700
O47         O  0.79410343  0.63719444  0.09775159    -0.79500
O48         O  0.76926213  0.71602270  0.48868654    -0.81300
O49         O  0.74297487  0.58590756  0.51198195    -0.84100
C50         C  0.82296135  0.64793858  0.08850490     0.96700
C51         C  0.75385828  0.71148836  0.08697564     1.04100
O52         O  0.76266733  0.65305657  0.53050417    -1.13000
O53         O  0.69653154  0.64224981  0.50399929    -0.75500
O54         O  0.69631954  0.63719601  0.06157308    -0.79000
O55         O  0.82799248  0.66491708  0.06039872    -0.79600
C56         C  0.68126123  0.64168157  0.53285633     0.95600
O57         O  0.75271835  0.58819093  0.06805074    -0.77600
O58         O  0.74418557  0.67698336  0.45990948    -0.82800
C59         C  0.81805439  0.63981931  0.46869033     0.98200
C60         C  0.75300668  0.70683454  0.46281328     1.04200
O61         O  0.82209949  0.66553776  0.48577410    -0.78400
C62         C  0.74863243  0.57195083  0.04139136     1.02500
C63         C  0.99341158  0.64963387  0.27590606     0.79700
N64         N  0.97480371  0.64276359  0.24771971    -0.78600
C65         C  0.94198563  0.63392678  0.25175510     0.82200
N66         N  0.92809634  0.63235849  0.28391838    -0.78500
C67         C  0.94611449  0.63979439  0.31188554     0.82300
N68         N  0.97860083  0.64852818  0.30768915    -0.80200
C69         C  0.29546278  0.96305308  0.22768470     0.79700
N70         N  0.29603798  0.97561531  0.25962610    -0.78600
C71         C  0.30386873  0.00798493  0.26309476     0.82200
N72         N  0.31035605  0.02782889  0.23446070    -0.78500
C73         C  0.30895724  0.01589685  0.20243823     0.82300
N74         N  0.30160062  0.98343064  0.19921388    -0.80200
Fe75       Fe  0.30556140  0.20806623  0.01202423     1.65800
Fe76       Fe  0.31004074  0.20865956  0.42460380     1.73200
Fe77       Fe  0.25296115  0.15922025  0.46828996     1.54400
O78         O  0.27545229  0.12786676  0.00455859    -0.82200
O79         O  0.26455678  0.21207414  0.39825989    -0.80500
O80         O  0.30005131  0.16259245  0.03896953    -0.84700
O81         O  0.25866877  0.22220604  0.02542212    -0.79500
O82         O  0.27507708  0.13191213  0.42992546    -0.81300
O83         O  0.30364288  0.25724147  0.43635731    -0.84100
C84         C  0.23067708  0.20772526  0.02408385     0.96700
C85         C  0.29013729  0.13373996  0.03244203     1.04100
O86         O  0.28953916  0.19181603  0.46820737    -1.13000
O87         O  0.35843443  0.20646340  0.44500202    -0.75500
O88         O  0.35381121  0.19514790  0.00176081    -0.79000
O89         O  0.22599262  0.18247773  0.00638767    -0.79600
C90         C  0.37117681  0.19809817  0.47429518     0.95600
O91         O  0.31312012  0.25639851  0.99274419    -0.77600
O92         O  0.31783405  0.16197227  0.40837435    -0.82800
C93         C  0.23437884  0.20370112  0.40503322     0.98200
C94         C  0.30062308  0.13557078  0.41024047     1.04200
O95         O  0.22620106  0.18676815  0.43225598    -0.78400
C96         C  0.30781819  0.27201789  0.96402714     1.02500
C97         C  0.06226822  0.20938613  0.21909326     0.79700
N98         N  0.08348830  0.21325231  0.24607936    -0.78600
C99         C  0.11665491  0.21939275  0.23977556     0.82200
N100        N  0.12804369  0.22102561  0.20659466    -0.78500
C101        C  0.10719780  0.21649534  0.17991985     0.82300
N102        N  0.07447677  0.21062246  0.18628787    -0.80200
C103        C  0.27741729  0.46370322  0.49271079     0.79700
N104        N  0.27579075  0.47897727  0.02317345    -0.78600
C105        C  0.26496271  0.51067467  0.02406462     0.82200
N106        N  0.25580810  0.52703052  0.49424239    -0.78500
C107        C  0.25756091  0.51244473  0.46363681     0.82300
N108        N  0.26856808  0.48074754  0.46287717    -0.80200
Fe109      Fe  0.24818101  0.70351376  0.27868846     1.65800
Fe110      Fe  0.24941692  0.71035625  0.19147970     1.73200
Fe111      Fe  0.30373855  0.65886848  0.23438618     1.54400
O112        O  0.32694038  0.67754531  0.27753542    -0.82200
O113        O  0.24152176  0.66500985  0.17234354    -0.80500
O114        O  0.29392140  0.71725144  0.29591505    -0.84700
O115        O  0.25313117  0.65647846  0.30231044    -0.79500
O116        O  0.33298585  0.69014538  0.20378675    -0.81300
O117        O  0.19961029  0.70833276  0.20914228    -0.84100
C118        C  0.26307541  0.62830730  0.29345791     0.96700
C119        C  0.32130823  0.70165946  0.29662758     1.04100
O120        O  0.26709710  0.69076690  0.23476123    -1.13000
O121        O  0.25682872  0.75758880  0.20712695    -0.75500
O122        O  0.24101543  0.75272407  0.26225044    -0.79000
O123        O  0.27802122  0.62446141  0.26502620    -0.79600
C124        C  0.24992282  0.77025303  0.23553689     0.95600
O125        O  0.20116929  0.69046500  0.26445955    -0.77600
O126        O  0.29635593  0.71362021  0.16726209    -0.82800
C127        C  0.26067264  0.64021769  0.17119600     0.98200
C128        C  0.32622623  0.70622232  0.17576729     1.04200
O129        O  0.28566716  0.63604623  0.19110374    -0.78400
C130        C  0.18528237  0.69659264  0.23670848     1.02500
C131        C  0.49317570  0.69297884  0.48879966     0.79700
N132        N  0.47498280  0.70371416  0.01594926    -0.78600
C133        C  0.44381938  0.71653828  0.01068647     0.82200
N134        N  0.43116497  0.71827493  0.47824373    -0.78500
C135        C  0.44879791  0.70735488  0.45117751     0.82300
N136        N  0.47961959  0.69460927  0.45668360    -0.80200
C137        C  0.43306525  0.70650451  0.41687887    -0.05700
C138        C  0.44257273  0.68266101  0.39362099    -0.05700
C139        C  0.42421950  0.67855320  0.36356187    -0.23800
C140        C  0.39621251  0.69835931  0.35622623     0.18400
C141        C  0.38784616  0.72373655  0.37844830     0.15600
C142        C  0.40629890  0.72766096  0.40851020    -0.18900
C143        C  0.36020760  0.74385501  0.37113433    -0.20700
C144        C  0.33975500  0.73765533  0.34328953    -0.13300
C145        C  0.34647941  0.71116560  0.32215763     0.03400
C146        C  0.37554472  0.69230244  0.32806500    -0.25400
H147        H  0.46320068  0.66611332  0.39947658     0.08500
H148        H  0.43123556  0.65915115  0.34670819     0.12100
H149        H  0.39904586  0.74643672  0.42605564     0.12000
H150        H  0.35369149  0.76366675  0.38768369     0.11800
H151        H  0.31784431  0.75293249  0.33918119     0.12300
H152        H  0.38120837  0.67196038  0.31188792     0.14300
C153        C  0.35422577  0.71427423  0.15130294    -0.05700
C154        C  0.38671839  0.70312150  0.15926005    -0.05700
C155        C  0.41203855  0.70458325  0.13421570    -0.23800
C156        C  0.40542990  0.71715053  0.10061199     0.18400
C157        C  0.37355331  0.73045458  0.09289975     0.15600
C158        C  0.34823654  0.72918121  0.11831361    -0.18900
C159        C  0.36695881  0.74310306  0.05932816    -0.20700
C160        C  0.39079317  0.74041357  0.03313623    -0.13300
C161        C  0.42180571  0.72511749  0.03993360     0.03400
C162        C  0.42949531  0.71487263  0.07419064    -0.25400
H163        H  0.39229407  0.69173410  0.18448126     0.08500
H164        H  0.43637149  0.69455925  0.14075182     0.12100
H165        H  0.32344553  0.73802607  0.11174735     0.12000
H166        H  0.34285726  0.75378398  0.05297064     0.11800
H167        H  0.38428036  0.74912930  0.00714312     0.12300
H168        H  0.45328857  0.70323817  0.07995016     0.14300
C169        C  0.24896552  0.53206610  0.43172233    -0.05700
C170        C  0.22654034  0.55859528  0.43356238    -0.05700
C171        C  0.22194637  0.58076018  0.40522663    -0.23800
C172        C  0.24016567  0.57713470  0.37469632     0.18400
C173        C  0.26152558  0.54960573  0.37189153     0.15600
C174        C  0.26544432  0.52691130  0.40031821    -0.18900
C175        C  0.27996324  0.54630173  0.34137348    -0.20700
C176        C  0.27880910  0.57102185  0.31479950    -0.13300
C177        C  0.25912893  0.59942965  0.31824751     0.03400
C178        C  0.23883886  0.60163257  0.34777227    -0.25400
H179        H  0.21324239  0.56280013  0.45738629     0.08500
H180        H  0.20525185  0.60153482  0.40771962     0.12100
H181        H  0.28288418  0.50660689  0.39870580     0.12000
H182        H  0.29635181  0.52533392  0.33864663     0.11800
H183        H  0.29468710  0.56865927  0.29230761     0.12300
H184        H  0.22336260  0.62326484  0.35065420     0.14300
C185        C  0.26406240  0.52810035  0.05667847    -0.05700
C186        C  0.28192472  0.51634737  0.08590307    -0.05700
C187        C  0.28352335  0.53500204  0.11529424    -0.23800
C188        C  0.26716980  0.56560131  0.11592890     0.18400
C189        C  0.24797899  0.57675402  0.08717092     0.15600
C190        C  0.24653370  0.55802306  0.05793586    -0.18900
C191        C  0.23122920  0.60698114  0.08758398    -0.20700
C192        C  0.23434244  0.62667398  0.11573503    -0.13300
C193        C  0.25447127  0.61669290  0.14400059     0.03400
C194        C  0.27039623  0.58572001  0.14423676    -0.25400
H195        H  0.29553480  0.49328456  0.08565013     0.08500
H196        H  0.29814404  0.52586551  0.13717847     0.12100
H197        H  0.23224090  0.56722145  0.03580441     0.12000
H198        H  0.21632497  0.61578634  0.06576047     0.11800
H199        H  0.22189263  0.65042284  0.11469388     0.12300
H200        H  0.28586362  0.57768542  0.16591761     0.14300
C201        C  0.28753045  0.42844787  0.49237181    -0.05700
C202        C  0.29621167  0.41087061  0.02332725    -0.05700
C203        C  0.30347696  0.37711482  0.02366911    -0.23800
C204        C  0.30215631  0.36017308  0.99309351     0.18400
C205        C  0.29429939  0.37767485  0.46168339     0.15600
C206        C  0.28720344  0.41165446  0.46147656    -0.18900
C207        C  0.29289637  0.36071927  0.43112126    -0.20700
C208        C  0.29828648  0.32659343  0.43177751    -0.13300
C209        C  0.30531675  0.30868683  0.96300826     0.03400
C210        C  0.30775345  0.32589920  0.99354892    -0.25400
H211        H  0.29687466  0.42305270  0.04752178     0.08500
H212        H  0.30957443  0.36413421  0.04800160     0.12100
H213        H  0.28066361  0.42476834  0.43734304     0.12000
H214        H  0.28698849  0.37374682  0.40676165     0.11800
H215        H  0.29624584  0.31411981  0.40784865     0.12300
H216        H  0.31310550  0.31253985  0.01788488     0.14300
C217        C  0.12063953  0.21552229  0.14467699    -0.05700
C218        C  0.11155678  0.18975907  0.12372971    -0.05700
C219        C  0.12864842  0.18533626  0.09274611    -0.23800
C220        C  0.15479573  0.20682207  0.08231521     0.18400
C221        C  0.16201144  0.23442949  0.10196222     0.15600
C222        C  0.14498147  0.23849827  0.13310625    -0.18900
C223        C  0.18765394  0.25627376  0.09135156    -0.20700
C224        C  0.20827174  0.24898897  0.06369116    -0.13300
C225        C  0.20356967  0.21970927  0.04622541     0.03400
C226        C  0.17544056  0.19983341  0.05422110    -0.25400
H227        H  0.09264229  0.17191872  0.13234484     0.08500
H228        H  0.12249920  0.16425441  0.07783908     0.12100
H229        H  0.15165920  0.25866437  0.14913898     0.12000
H230        H  0.19300408  0.27796243  0.10566570     0.11800
H231        H  0.22922906  0.26526181  0.05743346     0.12300
H232        H  0.17123594  0.17747534  0.04060462     0.14300
C233        C  0.20757630  0.21208273  0.37965909    -0.05700
C234        C  0.17381973  0.20613697  0.38866136    -0.05700
C235        C  0.14877483  0.20858624  0.36367994    -0.23800
C236        C  0.15692646  0.21679280  0.32903046     0.18400
C237        C  0.19049412  0.22440724  0.31999136     0.15600
C238        C  0.21549722  0.22240569  0.34533694    -0.18900
C239        C  0.19880260  0.23249337  0.28543319    -0.20700
C240        C  0.17448428  0.23171405  0.25988535    -0.13300
C241        C  0.14112657  0.22298491  0.26816724     0.03400
C242        C  0.13237831  0.21631729  0.30312972    -0.25400
H243        H  0.16680587  0.19845237  0.41494885     0.08500
H244        H  0.12321341  0.20294397  0.37127936     0.12100
H245        H  0.24129656  0.22708109  0.33790949     0.12000
H246        H  0.22431083  0.23858020  0.27799070     0.11800
H247        H  0.18215254  0.23739826  0.23335218     0.12300
H248        H  0.10688056  0.20964587  0.31006591     0.14300
C249        C  0.29489295  0.10623716  0.05887760    -0.05700
C250        C  0.27974371  0.07520645  0.05511122    -0.05700
C251        C  0.28145254  0.05031698  0.08152488    -0.23800
C252        C  0.29821829  0.05600987  0.11230943     0.18400
C253        C  0.31441398  0.08670745  0.11592082     0.15600
C254        C  0.31287535  0.11144809  0.08917857    -0.18900
C255        C  0.33087847  0.09266151  0.14676148    -0.20700
C256        C  0.32999374  0.06907404  0.17439453    -0.13300
C257        C  0.31310508  0.03884101  0.17158503     0.03400
C258        C  0.29802327  0.03207104  0.14001211    -0.25400
H259        H  0.26574962  0.07040883  0.03208222     0.08500
H260        H  0.26892760  0.02694187  0.07822441     0.12100
H261        H  0.32482780  0.13512061  0.09248117     0.12000
H262        H  0.34358887  0.11596530  0.14990054     0.11800
H263        H  0.34206303  0.07477748  0.19829555     0.12300
H264        H  0.28476388  0.00893369  0.13754974     0.14300
C265        C  0.30353029  0.02261187  0.29722059    -0.05700
C266        C  0.27832144  0.01442025  0.32163457    -0.05700
C267        C  0.27434309  0.03297598  0.35092907    -0.23800
C268        C  0.29572831  0.05977594  0.35630880     0.18400
C269        C  0.32268297  0.06638673  0.33313928     0.15600
C270        C  0.32634799  0.04786059  0.30380286    -0.18900
C271        C  0.34452259  0.09259827  0.33859082    -0.20700
C272        C  0.33834187  0.11369262  0.36517182    -0.13300
C273        C  0.31012102  0.10912517  0.38687287     0.03400
C274        C  0.28964879  0.08114831  0.38319681    -0.25400
H275        H  0.26051218  0.99497698  0.31702380     0.08500
H276        H  0.25375448  0.02723078  0.36857169     0.12100
H277        H  0.34612300  0.05402410  0.28524357     0.12000
H278        H  0.36562258  0.09764829  0.32139931     0.11800
H279        H  0.35497306  0.13457643  0.36765236     0.12300
H280        H  0.26802782  0.07703143  0.39989811     0.14300
C281        C  0.28848096  0.92747851  0.22372148    -0.05700
C282        C  0.29952429  0.91216012  0.19397554    -0.05700
C283        C  0.29356040  0.87854720  0.19004912    -0.23800
C284        C  0.27610652  0.85963067  0.21567500     0.18400
C285        C  0.26461492  0.87476677  0.24558122     0.15600
C286        C  0.27103337  0.90852891  0.24953660    -0.18900
C287        C  0.24708722  0.85580809  0.27114236    -0.20700
C288        C  0.24159125  0.82204417  0.26743620    -0.13300
C289        C  0.25333701  0.80657692  0.23804073     0.03400
C290        C  0.27032026  0.82575144  0.21202663    -0.25400
H291        H  0.31324840  0.92611146  0.17381934     0.08500
H292        H  0.30265181  0.86735827  0.16703262     0.12100
H293        H  0.26225596  0.92005093  0.27250029     0.12000
H294        H  0.23797592  0.86698059  0.29415362     0.11800
H295        H  0.22842350  0.80793075  0.28787517     0.12300
H296        H  0.27975479  0.81421637  0.18933460     0.14300
C297        C  0.14883192  0.68935768  0.23708482    -0.05700
C298        C  0.13064917  0.68734862  0.20633779    -0.05700
C299        C  0.09660602  0.67884204  0.20736993    -0.23800
C300        C  0.08006642  0.67240771  0.23917638     0.18400
C301        C  0.09820855  0.67460100  0.27011265     0.15600
C302        C  0.13220704  0.68291354  0.26887626    -0.18900
C303        C  0.08215308  0.66842699  0.30198491    -0.20700
C304        C  0.04833214  0.66036120  0.30339863    -0.13300
C305        C  0.02959571  0.65808670  0.27297899     0.03400
C306        C  0.04580859  0.66397439  0.24074599    -0.25400
H307        H  0.14285331  0.69185735  0.18148474     0.08500
H308        H  0.08324634  0.67725375  0.18330310     0.12100
H309        H  0.14573956  0.68435795  0.29289100     0.12000
H310        H  0.09575228  0.66992809  0.32593707     0.11800
H311        H  0.03690469  0.65580284  0.32863730     0.12300
H312        H  0.03183913  0.66232396  0.21705243     0.14300
C313        C  0.64463684  0.64757719  0.53242649    -0.05700
C314        C  0.62717062  0.65637303  0.06222427    -0.05700
C315        C  0.59347388  0.66571781  0.06031954    -0.23800
C316        C  0.57666803  0.66646359  0.02858211     0.18400
C317        C  0.59377518  0.65642609  0.49888527     0.15600
C318        C  0.62734087  0.64695991  0.50102075    -0.18900
C319        C  0.57741105  0.65688732  0.46713360    -0.20700
C320        C  0.54469107  0.66816544  0.46441150    -0.13300
C321        C  0.52739227  0.67927024  0.49338126     0.03400
C322        C  0.54345198  0.67777547  0.02570925    -0.25400
H323        H  0.63983471  0.65710225  0.08676385     0.08500
H324        H  0.58081890  0.67312182  0.08348237     0.12100
H325        H  0.64027049  0.63997255  0.47782328     0.12000
H326        H  0.59014251  0.64908230  0.44416567     0.11800
H327        H  0.53315519  0.66860717  0.43920967     0.12300
H328        H  0.53048810  0.68600175  0.04835244     0.14300
C329        C  0.85161679  0.64214726  0.11230721    -0.05700
C330        C  0.88272041  0.65751728  0.10510810    -0.05700
C331        C  0.90810837  0.65656069  0.12979637    -0.23800
C332        C  0.90290444  0.64033595  0.16229506     0.18400
C333        C  0.87241738  0.62336275  0.16909220     0.15600
C334        C  0.84719466  0.62408951  0.14405268    -0.18900
C335        C  0.86692155  0.60725955  0.20150013    -0.20700
C336        C  0.89046882  0.60953917  0.22760034    -0.13300
C337        C  0.92025679  0.62765555  0.22187019     0.03400
C338        C  0.92688274  0.64208569  0.18863474    -0.25400
H339        H  0.88705134  0.67147636  0.08084311     0.08500
H340        H  0.93133357  0.66953930  0.12391188     0.12100
H341        H  0.82353933  0.61192325  0.15002308     0.12000
H342        H  0.84385178  0.59390356  0.20710175     0.11800
H343        H  0.88485169  0.59778523  0.25276368     0.12300
H344        H  0.94965544  0.65619148  0.18384770     0.14300
C345        C  0.92972654  0.64042532  0.34609467    -0.05700
C346        C  0.93742338  0.66552171  0.36844826    -0.05700
C347        C  0.91879896  0.66890019  0.39875144    -0.23800
C348        C  0.89247434  0.64693797  0.40736141     0.18400
C349        C  0.88597104  0.62039952  0.38605069     0.15600
C350        C  0.90448293  0.61743609  0.35546505    -0.18900
C351        C  0.86011003  0.59808663  0.39490296    -0.20700
C352        C  0.83936501  0.60328105  0.42322525    -0.13300
C353        C  0.84404210  0.63091418  0.44327180     0.03400
C354        C  0.87158065  0.65194860  0.43592915    -0.25400
H355        H  0.95681823  0.68348239  0.36165201     0.08500
H356        H  0.92432888  0.68925521  0.41488131     0.12100
H357        H  0.89869808  0.59778532  0.33847913     0.12000
H358        H  0.85510977  0.57731694  0.37915528     0.11800
H359        H  0.81868490  0.58639271  0.42844609     0.12300
H360        H  0.87574289  0.67320910  0.45124001     0.15500
C361        C  0.76577744  0.81434190  0.20851816    -0.05700
C362        C  0.79166222  0.82063544  0.18434673    -0.05700
C363        C  0.79323163  0.80352918  0.15406403    -0.23800
C364        C  0.76851610  0.78029018  0.14716918     0.18400
C365        C  0.74170082  0.77469687  0.17084839     0.15600
C366        C  0.74073550  0.79143132  0.20166515    -0.18900
C367        C  0.71663647  0.75200535  0.16358693    -0.20700
C368        C  0.71924106  0.73342563  0.13439072    -0.13300
C369        C  0.74700355  0.73708911  0.11193173     0.03400
C370        C  0.77088492  0.76163131  0.11772534    -0.25400
H371        H  0.81106072  0.83849059  0.18922534     0.08500
H372        H  0.81387339  0.80827142  0.13622680     0.12100
H373        H  0.72044059  0.78700198  0.22003140     0.12000
H374        H  0.69564579  0.74777304  0.18109007     0.11800
H375        H  0.70027240  0.71490405  0.13036885     0.12300
H376        H  0.79241302  0.76470190  0.10070785     0.14300
C377        C  0.75858422  0.81830123  0.33517871    -0.05700
C378        C  0.77751579  0.82923176  0.36279673    -0.05700
C379        C  0.77840058  0.81081919  0.39439825    -0.23800
C380        C  0.76003351  0.78132509  0.39909840     0.18400
C381        C  0.73965281  0.77098278  0.37201872     0.15600
C382        C  0.73916455  0.78941994  0.34023579    -0.18900
C383        C  0.72102868  0.74171662  0.37673491    -0.20700
C384        C  0.72398718  0.72190616  0.40718561    -0.13300
C385        C  0.74553617  0.73096224  0.43366854     0.03400
C386        C  0.76271821  0.76136142  0.42983006    -0.25400
H387        H  0.79276921  0.85134207  0.35949668     0.08500
H388        H  0.79408600  0.81923140  0.41485525     0.12100
H389        H  0.72425326  0.78092566  0.31919405     0.12000
H390        H  0.70499318  0.73358008  0.35642711     0.11800
H391        H  0.71020338  0.69880666  0.40946454     0.12300
H392        H  0.77947559  0.76867957  0.44990960     0.14300
C393        C  0.75184416  0.53548426  0.04378822    -0.05700
C394        C  0.76342545  0.51855234  0.07400950    -0.05700
C395        C  0.77075175  0.48471973  0.07408973    -0.23800
C396        C  0.76688366  0.46745096  0.04387144     0.18400
C397        C  0.75381244  0.48407731  0.51398817     0.15600
C398        C  0.74594629  0.51764309  0.51432086    -0.18900
C399        C  0.75012100  0.46732915  0.48360371    -0.20700
C400        C  0.76051515  0.43466579  0.48225915    -0.13300
C401        C  0.77446652  0.41791575  0.01139862     0.03400
C402        C  0.77689115  0.43428118  0.04250504    -0.25400
H403        H  0.76796382  0.53166472  0.09717942     0.08500
H404        H  0.78050501  0.47236947  0.09736859     0.12100
H405        H  0.73663611  0.53019165  0.49092811     0.12000
H406        H  0.74000243  0.47977016  0.46054398     0.11800
H407        H  0.75795318  0.42267297  0.45809312     0.12300
H408        H  0.78753675  0.42168076  0.06521481     0.14300
C409        C  0.91129151  0.15587485  0.25402658    -0.05700
C410        C  0.93309577  0.14362503  0.27995852    -0.05700
C411        C  0.96694566  0.15230870  0.27912752    -0.23800
C412        C  0.97956446  0.17386332  0.25262398     0.18400
C413        C  0.95775339  0.18639244  0.22649085     0.15600
C414        C  0.92390977  0.17708058  0.22716151    -0.18900
C415        C  0.97012348  0.20812273  0.20011092    -0.20700
C416        C  0.00393538  0.21644253  0.19886739    -0.13300
C417        C  0.02607351  0.20354146  0.22413678     0.03400
C418        C  0.01362188  0.18276296  0.25148008    -0.25400
H419        H  0.92384621  0.12741248  0.30107573     0.08500
H420        H  0.98316867  0.14239288  0.29937271     0.12100
H421        H  0.90718169  0.18716345  0.20742499     0.12000
H422        H  0.95377399  0.21823311  0.18007152     0.11800
H423        H  0.01297941  0.23266677  0.17765265     0.12300
H424        H  0.03057181  0.17250065  0.27089917     0.14300
C425        C  0.80320921  0.04189247  0.27394199    -0.05700
C426        C  0.80134982  0.02676104  0.30755995    -0.05700
C427        C  0.79512001  0.99293368  0.31271380    -0.23800
C428        C  0.79069822  0.97341325  0.28438822     0.18400
C429        C  0.79301762  0.98817725  0.25049236     0.15600
C430        C  0.79925090  0.02226033  0.24545669    -0.18900
C431        C  0.78872653  0.96865665  0.22215718    -0.20700
C432        C  0.78208800  0.93492251  0.22728272    -0.13300
C433        C  0.77953684  0.91990286  0.26088485     0.03400
C434        C  0.78388329  0.93942872  0.28940493    -0.25400
H435        H  0.80416706  0.04117358  0.33012461     0.08500
H436        H  0.79349525  0.98211375  0.33888029     0.12100
H437        H  0.80057176  0.03349880  0.21944089     0.12000
H438        H  0.79041547  0.97947616  0.19599721     0.11800
H439        H  0.77884888  0.92063619  0.20469587     0.12300
H440        H  0.78206572  0.92826572  0.31542641     0.14300
C441        C  0.81562358  0.31235783  0.06504389    -0.05700
C442        C  0.83268239  0.28240000  0.06134278    -0.05700
C443        C  0.83513527  0.25912504  0.08903866    -0.23800
C444        C  0.82022617  0.26520172  0.12086573     0.18400
C445        C  0.80442427  0.29586081  0.12546209     0.15600
C446        C  0.80260724  0.31946795  0.09764072    -0.18900
C447        C  0.78919761  0.30166257  0.15726401    -0.20700
C448        C  0.78789650  0.27661339  0.18350547    -0.13300
C449        C  0.80206304  0.24542980  0.17850919     0.03400
C450        C  0.81934921  0.24041379  0.14750488    -0.25400
H451        H  0.84329856  0.27643327  0.03664302     0.08500
H452        H  0.84754187  0.23584816  0.08515089     0.12100
H453        H  0.78936892  0.34242719  0.10087340     0.12000
H454        H  0.77714644  0.32507365  0.16135895     0.11800
H455        H  0.77465469  0.28130334  0.20722819     0.12300
H456        H  0.83059417  0.21662423  0.14328231     0.14300
C457        C  0.80267238  0.32504292  0.43980588    -0.05700
C458        C  0.77931129  0.33406953  0.41413383    -0.05700
C459        C  0.77690746  0.31609043  0.38435383    -0.23800
C460        C  0.79801292  0.28901149  0.37977338     0.18400
C461        C  0.82295830  0.28129162  0.40450762     0.15600
C462        C  0.82511546  0.29929826  0.43424694    -0.18900
C463        C  0.84441446  0.25466331  0.40000178    -0.20700
C464        C  0.83989075  0.23443234  0.37245818    -0.13300
C465        C  0.81372348  0.24031500  0.34888656     0.03400
C466        C  0.79360405  0.26852069  0.35195152    -0.25400
H467        H  0.76181512  0.35395095  0.41786482     0.08500
H468        H  0.75782056  0.32261849  0.36556086     0.12100
H469        H  0.84353618  0.29248643  0.45370156     0.12000
H470        H  0.86389179  0.24868073  0.41853933     0.11800
H471        H  0.85601672  0.21314731  0.37067666     0.12300
H472        H  0.77346262  0.27351977  0.33391184     0.14300
C473        C  0.70109914  0.14319093  0.18601305    -0.05700
C474        C  0.67029876  0.15906474  0.19131314    -0.05700
C475        C  0.64491304  0.15862664  0.16656958    -0.23800
C476        C  0.64975993  0.14248285  0.13577223     0.18400
C477        C  0.67982788  0.12489740  0.13112028     0.15600
C478        C  0.70504109  0.12507969  0.15625342    -0.18900
C479        C  0.68499948  0.10870935  0.10056647    -0.20700
C480        C  0.66168147  0.11146686  0.07405734    -0.13300
C481        C  0.63241354  0.13039857  0.07725669     0.03400
C482        C  0.62597025  0.14492330  0.10888780    -0.25400
H483        H  0.66624047  0.17303570  0.21404195     0.08500
H484        H  0.62201410  0.17200786  0.17095365     0.12100
H485        H  0.72845460  0.11263483  0.15162793     0.12000
H486        H  0.70769431  0.09485116  0.09661201     0.11800
H487        H  0.66723135  0.09947058  0.05034858     0.12300
H488        H  0.60363927  0.15959454  0.11182825     0.14300
C489        C  0.71805793  0.13422268  0.35969162    -0.05700
C490        C  0.72996278  0.11621874  0.38914482    -0.05700
C491        C  0.71013680  0.11186211  0.41869629    -0.23800
C492        C  0.67808121  0.12541005  0.41930790     0.18400
C493        C  0.66492932  0.14147826  0.38912442     0.15600
C494        C  0.68489963  0.14548015  0.35931979    -0.18900
C495        C  0.63270471  0.15483468  0.38989422    -0.20700
C496        C  0.61441246  0.15381736  0.42078976    -0.13300
C497        C  0.62810179  0.13938731  0.45131362     0.03400
C498        C  0.65959749  0.12438363  0.45007494    -0.25400
H499        H  0.75527466  0.10687135  0.39006163     0.08500
H500        H  0.72040532  0.09912802  0.44151847     0.12100
H501        H  0.67530464  0.15909936  0.33668630     0.12000
H502        H  0.62210831  0.16701186  0.36693585     0.11800
H503        H  0.59003500  0.16531466  0.42100962     0.12300
H504        H  0.67023493  0.11272069  0.47330107     0.14300
C505        C  0.52569155  0.16134519  0.51562453    -0.05700
C506        C  0.50644428  0.16362454  0.04587514    -0.05700
C507        C  0.47237291  0.17153500  0.04388819    -0.23800
C508        C  0.45695336  0.17734542  0.01163244     0.18400
C509        C  0.47606943  0.17518593  0.48112724     0.15600
C510        C  0.51004206  0.16724031  0.48331247    -0.18900
C511        C  0.46093668  0.18095210  0.44882222    -0.20700
C512        C  0.42704843  0.18883462  0.44664966    -0.13300
C513        C  0.40752902  0.19099430  0.47673604     0.03400
C514        C  0.42280129  0.18517132  0.00926521    -0.25400
H515        H  0.51765200  0.15919181  0.07102106     0.08500
H516        H  0.45805645  0.17306848  0.06761040     0.12100
H517        H  0.52423198  0.16562560  0.45950677     0.12000
H518        H  0.47532864  0.17928560  0.42515322     0.11800
H519        H  0.41604599  0.19287943  0.42134100     0.12300
H520        H  0.40815005  0.18664700  0.03279023     0.14300
C521        C  0.56178693  0.15243718  0.01661965     0.79700
N522        N  0.57806729  0.14996498  0.98599670    -0.78600
C523        C  0.61050201  0.14118354  0.98475176     0.82200
N524        N  0.62701217  0.13487891  0.51463681    -0.78500
C525        C  0.61176431  0.13725565  0.54579501     0.82300
N526        N  0.57883187  0.14628921  0.54689282    -0.80200
Fe527      Fe  0.80650270  0.14188529  0.72049037     1.65800
Fe528      Fe  0.81567622  0.14224300  0.80811725     1.73200
Fe529      Fe  0.75649828  0.19120774  0.76832858     1.54400
O530        O  0.77809004  0.22205603  0.73034814    -0.82200
O531        O  0.77186515  0.13636285  0.83523912    -0.80500
O532        O  0.80739810  0.18900378  0.69711684    -0.84700
O533        O  0.75782920  0.13482427  0.70359243    -0.79500
O534        O  0.77993269  0.21846439  0.80511643    -0.81300
O535        O  0.81131719  0.09398078  0.79635407    -0.84100
C536        C  0.73013537  0.14907426  0.70898346     0.96700
C537        C  0.79590607  0.21727314  0.70377839     1.04100
O538        O  0.79282823  0.15844282  0.76553757    -1.13000
O539        O  0.86270140  0.14617138  0.78726752    -0.75500
O540        O  0.85723790  0.14812042  0.73016643    -0.79000
O541        O  0.72677225  0.16985925  0.73212545    -0.79600
C542        C  0.87498774  0.14929872  0.75713934     0.95600
O543        O  0.80628430  0.09258996  0.73927896    -0.77600
O544        O  0.82248685  0.18852695  0.82551223    -0.82800
C545        C  0.74159924  0.14479691  0.83174728     0.98200
C546        C  0.80517948  0.21464205  0.82450780     1.04200
O547        O  0.73143214  0.16333008  0.80651581    -0.78400
C548        C  0.80748685  0.07825431  0.76932589     1.02500
C549        C  0.78728910  0.38391739  0.50853562     0.79700
N550        N  0.78970329  0.37095856  0.97692950    -0.78600
C551        C  0.80186527  0.34007503  0.97366801     0.82200
N552        N  0.81121462  0.32191604  0.50234216    -0.78500
C553        C  0.80854617  0.33419194  0.53414628     0.82300
N554        N  0.79652054  0.36530425  0.53714933    -0.80200
C555        C  0.77252451  0.88397457  0.76548349     0.79700
N556        N  0.77124796  0.86584276  0.73718959    -0.78600
C557        C  0.76461468  0.83307768  0.73992695     0.82200
N558        N  0.75923689  0.81789668  0.77162579    -0.78500
C559        C  0.76110873  0.83556787  0.80053922     0.82300
N560        N  0.76791360  0.86863823  0.79732540    -0.80200
Fe561      Fe  0.74632461  0.63751446  0.57674123     1.65800
Fe562      Fe  0.74479458  0.63305073  0.98941923     1.73200
Fe563      Fe  0.79666505  0.68843796  0.02504701     1.54400
O564        O  0.77642366  0.71618129  0.56389107    -0.82200
O565        O  0.79162949  0.62241321  0.97106999    -0.80500
O566        O  0.73825182  0.68438643  0.59156694    -0.84700
O567        O  0.79410399  0.63719428  0.59775150    -0.79500
O568        O  0.76926181  0.71602238  0.98868575    -0.81300
O569        O  0.74297475  0.58590730  0.01198209    -0.84100
C570        C  0.82296198  0.64793808  0.58850464     0.96700
C571        C  0.75385856  0.71148794  0.58697572     1.04100
O572        O  0.76266689  0.65305663  0.03050416    -1.13000
O573        O  0.69653138  0.64224944  0.00399922    -0.75500
O574        O  0.69632013  0.63719534  0.56157312    -0.79000
O575        O  0.82799313  0.66491650  0.56039842    -0.79600
C576        C  0.68126085  0.64168184  0.03285610     0.95600
O577        O  0.75271907  0.58819059  0.56805056    -0.77600
O578        O  0.74418516  0.67698272  0.95990926    -0.82800
C579        C  0.81805413  0.63981888  0.96869058     0.98200
C580        C  0.75300635  0.70683391  0.96281261     1.04200
O581        O  0.82209931  0.66553738  0.98577427    -0.78400
C582        C  0.74863270  0.57195075  0.54139106     1.02500
C583        C  0.99341097  0.64963241  0.77590620     0.79700
N584        N  0.97480335  0.64276189  0.74771980    -0.78600
C585        C  0.94198540  0.63392472  0.75175500     0.82200
N586        N  0.92809587  0.63235638  0.78391819    -0.78500
C587        C  0.94611381  0.63979256  0.81188544     0.82300
N588        N  0.97860010  0.64852664  0.80768920    -0.80200
C589        C  0.29546190  0.96305341  0.72768452     0.79700
N590        N  0.29603633  0.97561589  0.75962581    -0.78600
C591        C  0.30386682  0.00798558  0.76309435     0.82200
N592        N  0.31035466  0.02782935  0.73446027    -0.78500
C593        C  0.30895659  0.01589702  0.70243790     0.82300
N594        N  0.30160021  0.98343075  0.69921368    -0.80200
Fe595      Fe  0.30556276  0.20806590  0.51202401     1.65800
Fe596      Fe  0.31003940  0.20865973  0.92460391     1.73200
Fe597      Fe  0.25295988  0.15922029  0.96829034     1.54400
O598        O  0.27545376  0.12786648  0.50455781    -0.82200
O599        O  0.26455528  0.21207503  0.89826037    -0.80500
O600        O  0.30005243  0.16259208  0.53896914    -0.84700
O601        O  0.25867022  0.22220587  0.52542194    -0.79500
O602        O  0.27507591  0.13191191  0.92992625    -0.81300
O603        O  0.30364237  0.25724175  0.93635738    -0.84100
C604        C  0.23067864  0.20772489  0.52408403     0.96700
C605        C  0.29013854  0.13373960  0.53244139     1.04100
O606        O  0.28953784  0.19181622  0.96820759    -1.13000
O607        O  0.35843312  0.20646285  0.94500201    -0.75500
O608        O  0.35381248  0.19514738  0.50176061    -0.79000
O609        O  0.22599414  0.18247739  0.50638777    -0.79600
C610        C  0.37117550  0.19809808  0.97429530     0.95600
O611        O  0.31312165  0.25639818  0.49274397    -0.77600
O612        O  0.31783207  0.16197249  0.90837403    -0.82800
C613        C  0.23437747  0.20370145  0.90503357     0.98200
C614        C  0.30062145  0.13557079  0.91024069     1.04200
O615        O  0.22619993  0.18676780  0.93225597    -0.78400
C616        C  0.30781898  0.27201758  0.46402708     1.02500
C617        C  0.06226838  0.20938268  0.71909280     0.79700
N618        N  0.08348794  0.21324991  0.74607909    -0.78600
C619        C  0.11665445  0.21939117  0.73977568     0.82200
N620        N  0.12804370  0.22102383  0.70659496    -0.78500
C621        C  0.10719835  0.21649254  0.67991994     0.82300
N622        N  0.07447737  0.21061887  0.68628757    -0.80200
C623        C  0.27741858  0.46370405  0.99270996     0.79700
N624        N  0.27578883  0.47897635  0.52317433    -0.78600
C625        C  0.26496047  0.51067366  0.52406535     0.82200
N626        N  0.25580997  0.52703159  0.99424180    -0.78500
C627        C  0.25756219  0.51244569  0.96363620     0.82300
N628        N  0.26856905  0.48074837  0.96287645    -0.80200
Fe629      Fe  0.24817952  0.70351431  0.77868749     1.65800
Fe630      Fe  0.24941533  0.71035707  0.69147869     1.73200
Fe631      Fe  0.30373669  0.65886896  0.73438505     1.54400
O632        O  0.32693848  0.67754531  0.77753457    -0.82200
O633        O  0.24152000  0.66501079  0.67234227    -0.80500
O634        O  0.29391992  0.71725190  0.79591389    -0.84700
O635        O  0.25312974  0.65647896  0.80230946    -0.79500
O636        O  0.33298409  0.69014599  0.70378584    -0.81300
O637        O  0.19960870  0.70833366  0.70914150    -0.84100
C638        C  0.26307372  0.62830775  0.79345676     0.96700
C639        C  0.32130647  0.70165943  0.79662680     1.04100
O640        O  0.26709543  0.69076751  0.73476017    -1.13000
O641        O  0.25682731  0.75758947  0.70712616    -0.75500
O642        O  0.24101386  0.75272463  0.76224959    -0.79000
O643        O  0.27801911  0.62446186  0.76502481    -0.79600
C644        C  0.24992137  0.77025363  0.73553612     0.95600
O645        O  0.20116787  0.69046563  0.76445870    -0.77600
O646        O  0.29635443  0.71362100  0.66726099    -0.82800
C647        C  0.26067088  0.64021862  0.67119470     0.98200
C648        C  0.32622467  0.70622301  0.67576634     1.04200
O649        O  0.28566533  0.63604706  0.69110248    -0.78400
C650        C  0.18528085  0.69659349  0.73670776     1.02500
C651        C  0.49317525  0.69297883  0.98879831     0.79700
N652        N  0.47498324  0.70371474  0.51595034    -0.78600
C653        C  0.44382031  0.71653996  0.51068709     0.82200
N654        N  0.43116352  0.71827265  0.97824337    -0.78500
C655        C  0.44879639  0.70735309  0.95117690     0.82300
N656        N  0.47961862  0.69460861  0.95668246    -0.80200
C657        C  0.43306338  0.70650275  0.91687846    -0.05700
C658        C  0.44257123  0.68266004  0.89361988    -0.05700
C659        C  0.42421794  0.67855260  0.86356071    -0.23800
C660        C  0.39621052  0.69835832  0.85622575     0.18400
C661        C  0.38784363  0.72373466  0.87844873     0.15600
C662        C  0.40629643  0.72765866  0.90851059    -0.18900
C663        C  0.36020463  0.74385270  0.87113557    -0.20700
C664        C  0.33975227  0.73765363  0.84329046    -0.13300
C665        C  0.34647732  0.71116491  0.82215743     0.03400
C666        C  0.37554291  0.69230201  0.82806422    -0.25400
H667        H  0.46319967  0.66611271  0.89947490     0.08500
H668        H  0.43123439  0.65915122  0.84670637     0.12100
H669        H  0.39904303  0.74643391  0.92605668     0.12000
H670        H  0.35368805  0.76366372  0.88768574     0.11800
H671        H  0.31784122  0.75293052  0.83918271     0.12300
H672        H  0.38120700  0.67196070  0.81188634     0.14300
C673        C  0.35422452  0.71427487  0.65130226    -0.05700
C674        C  0.38671687  0.70312151  0.65925955    -0.05700
C675        C  0.41203742  0.70458334  0.63421563    -0.23800
C676        C  0.40542942  0.71715142  0.60061206     0.18400
C677        C  0.37355315  0.73045609  0.59289958     0.15600
C678        C  0.34823590  0.72918258  0.61831306    -0.18900
C679        C  0.36695940  0.74310538  0.55932808    -0.20700
C680        C  0.39079417  0.74041601  0.53313643    -0.13300
C681        C  0.42180635  0.72511927  0.53993403     0.03400
C682        C  0.42949526  0.71487366  0.57419106    -0.25400
H683        H  0.39229211  0.69173351  0.68448070     0.08500
H684        H  0.43637000  0.69455887  0.64075191     0.12100
H685        H  0.32344524  0.73802789  0.61174666     0.12000
H686        H  0.34285817  0.75378681  0.55297037     0.11800
H687        H  0.38428192  0.74913227  0.50714341     0.12300
H688        H  0.45328813  0.70323874  0.57995076     0.14300
C689        C  0.24896631  0.53206694  0.93172176    -0.05700
C690        C  0.22654084  0.55859587  0.93356200    -0.05700
C691        C  0.22194626  0.58076053  0.90522614    -0.23800
C692        C  0.24016521  0.57713516  0.87469560     0.18400
C693        C  0.26152541  0.54960642  0.87189068     0.15600
C694        C  0.26544476  0.52691220  0.90031744    -0.18900
C695        C  0.27996273  0.54630248  0.84137240    -0.20700
C696        C  0.27880798  0.57102249  0.81479835    -0.13300
C697        C  0.25912759  0.59943011  0.81824645     0.03400
C698        C  0.23883783  0.60163292  0.84777145    -0.25400
H699        H  0.21324316  0.56280065  0.95738599     0.08500
H700        H  0.20525144  0.60153504  0.90771925     0.12100
H701        H  0.28288487  0.50660792  0.89870490     0.12000
H702        H  0.29635149  0.52533487  0.83864544     0.11800
H703        H  0.29468583  0.56865998  0.79230619     0.12300
H704        H  0.22336139  0.62326505  0.85065348     0.14300
C705        C  0.26405960  0.52809956  0.55667908    -0.05700
C706        C  0.28192004  0.51634596  0.58590468    -0.05700
C707        C  0.28351842  0.53500092  0.61529567    -0.23800
C708        C  0.26716656  0.56560118  0.61592905     0.18400
C709        C  0.24797759  0.57675458  0.58717000     0.15600
C710        C  0.24653242  0.55802324  0.55793527    -0.18900
C711        C  0.23122956  0.60698275  0.58758166    -0.20700
C712        C  0.23434270  0.62667582  0.61573252    -0.13300
C713        C  0.25446963  0.61669392  0.64399925     0.03400
C714        C  0.27039290  0.58572012  0.64423671    -0.25400
H715        H  0.29552893  0.49328233  0.58565273     0.08500
H716        H  0.29813765  0.52586386  0.63718072     0.12100
H717        H  0.23224099  0.56722221  0.53580300     0.12000
H718        H  0.21632683  0.61578851  0.56575726     0.11800
H719        H  0.22189432  0.65042551  0.61469036     0.12300
H720        H  0.28585884  0.57768496  0.66591849     0.14300
C721        C  0.28753134  0.42844856  0.99237106    -0.05700
C722        C  0.29621135  0.41086999  0.52332788    -0.05700
C723        C  0.30347704  0.37711428  0.52366953    -0.23800
C724        C  0.30215621  0.36017257  0.49309392     0.18400
C725        C  0.29430009  0.37767541  0.96168283     0.15600
C726        C  0.28720449  0.41165514  0.96147579    -0.18900
C727        C  0.29289729  0.36071976  0.93112071    -0.20700
C728        C  0.29828693  0.32659381  0.93177718    -0.13300
C729        C  0.30531699  0.30868646  0.46300842     0.03400
C730        C  0.30775381  0.32589876  0.49354913    -0.25400
H731        H  0.29687449  0.42305206  0.54752236     0.08500
H732        H  0.30957496  0.36413368  0.54800194     0.12100
H733        H  0.28066514  0.42476902  0.93734226     0.12000
H734        H  0.28698991  0.37374729  0.90676103     0.11800
H735        H  0.29624646  0.31412015  0.90784833     0.12300
H736        H  0.31310633  0.31253942  0.51788495     0.14300
C737        C  0.12064060  0.21551997  0.64467721    -0.05700
C738        C  0.11155757  0.18975756  0.62372897    -0.05700
C739        C  0.12864939  0.18533538  0.59274534    -0.23800
C740        C  0.15479717  0.20682099  0.58231535     0.18400
C741        C  0.16201329  0.23442759  0.60196341     0.15600
C742        C  0.14498311  0.23849576  0.63310743    -0.18900
C743        C  0.18765626  0.25627165  0.59135369    -0.20700
C744        C  0.20827405  0.24898749  0.56369306    -0.13300
C745        C  0.20357145  0.21970853  0.54622612     0.03400
C746        C  0.17544199  0.19983295  0.55422106    -0.25400
H747        H  0.09264264  0.17191738  0.63234331     0.08500
H748        H  0.12249987  0.16425416  0.57783750     0.12100
H749        H  0.15166106  0.25866127  0.64914086     0.12000
H750        H  0.19300676  0.27795977  0.60566873     0.11800
H751        H  0.22923159  0.26526007  0.55743609     0.12300
H752        H  0.17123695  0.17747536  0.54060361     0.14300
C753        C  0.20757475  0.21208307  0.87965965    -0.05700
C754        C  0.17381841  0.20613533  0.88866154    -0.05700
C755        C  0.14877359  0.20858403  0.86368001    -0.23800
C756        C  0.15692511  0.21679211  0.82903083     0.18400
C757        C  0.19049238  0.22440885  0.81999221     0.15600
C758        C  0.21549542  0.22240781  0.84533791    -0.18900
C759        C  0.19880070  0.23249663  0.78543430    -0.20700
C760        C  0.17448265  0.23171635  0.75988624    -0.13300
C761        C  0.14112550  0.22298469  0.76816762     0.03400
C762        C  0.13237723  0.21631568  0.80312989    -0.25400
H763        H  0.16680472  0.19844943  0.91494869     0.08500
H764        H  0.12321248  0.20294006  0.87127905     0.12100
H765        H  0.24129447  0.22708485  0.83791080     0.12000
H766        H  0.22430848  0.23858529  0.77799221     0.11800
H767        H  0.18215077  0.23740181  0.73335316     0.12300
H768        H  0.10688000  0.20964237  0.81006565     0.14300
C769        C  0.29489404  0.10623674  0.55887687    -0.05700
C770        C  0.27974423  0.07520627  0.55511062    -0.05700
C771        C  0.28145271  0.05031693  0.58152440    -0.23800
C772        C  0.29821860  0.05600961  0.61230887     0.18400
C773        C  0.31441493  0.08670690  0.61592007     0.15600
C774        C  0.31287668  0.11144740  0.58917771    -0.18900
C775        C  0.33087953  0.09266080  0.64676068    -0.20700
C776        C  0.32999428  0.06907357  0.67439393    -0.13300
C777        C  0.31310499  0.03884086  0.67158459     0.03400
C778        C  0.29802311  0.03207100  0.64001170    -0.25400
H779        H  0.26574994  0.07040884  0.53208174     0.08500
H780        H  0.26892719  0.02694187  0.57822406     0.12100
H781        H  0.32482966  0.13511986  0.59248019     0.12000
H782        H  0.34359047  0.11596447  0.64989960     0.11800
H783        H  0.34206362  0.07477690  0.69829490     0.12300
H784        H  0.28476315  0.00893377  0.63754949     0.14300
C785        C  0.30352783  0.02261268  0.79722005    -0.05700
C786        C  0.27831824  0.01442171  0.82163337    -0.05700
C787        C  0.27433981  0.03297739  0.85092783    -0.23800
C788        C  0.29572567  0.05977666  0.85630826     0.18400
C789        C  0.32268091  0.06638689  0.83313933     0.15600
C790        C  0.32634599  0.04786080  0.80380291    -0.18900
C791        C  0.34452112  0.09259781  0.83859150    -0.20700
C792        C  0.33834050  0.11369212  0.86517258    -0.13300
C793        C  0.31011920  0.10912518  0.88687307     0.03400
C794        C  0.28964629  0.08114892  0.88319636    -0.25400
H795        H  0.26050854  0.99497887  0.81702208     0.08500
H796        H  0.25375061  0.02723265  0.86857003     0.12100
H797        H  0.34612161  0.05402386  0.78524401     0.12000
H798        H  0.36562152  0.09764739  0.82140045     0.11800
H799        H  0.35497214  0.13457544  0.86765364     0.12300
H800        H  0.26802491  0.07703250  0.89989719     0.14300
C801        C  0.28848047  0.92747877  0.72372145    -0.05700
C802        C  0.29952511  0.91216014  0.69397615    -0.05700
C803        C  0.29356137  0.87854719  0.69004979    -0.23800
C804        C  0.27610637  0.85963092  0.71567502     0.18400
C805        C  0.26461358  0.87476725  0.74558065     0.15600
C806        C  0.27103190  0.90852940  0.74953599    -0.18900
C807        C  0.24708484  0.85580879  0.77114114    -0.20700
C808        C  0.24158885  0.82204487  0.76743498    -0.13300
C809        C  0.25333568  0.80657746  0.73804003     0.03400
C810        C  0.27032007  0.82575173  0.71202660    -0.25400
H811        H  0.31324999  0.92611125  0.67382052     0.08500
H812        H  0.30265373  0.86735803  0.66703377     0.12100
H813        H  0.26225351  0.92005169  0.77249926     0.12000
H814        H  0.23797263  0.86698151  0.79415203     0.11800
H815        H  0.22842027  0.80793165  0.78787338     0.12300
H816        H  0.27975545  0.81421648  0.68933500     0.14300
C817        C  0.14883040  0.68935866  0.73708437    -0.05700
C818        C  0.13064717  0.68735094  0.70633748    -0.05700
C819        C  0.09660408  0.67884429  0.70736988    -0.23800
C820        C  0.08006502  0.67240848  0.73917636     0.18400
C821        C  0.09820759  0.67460051  0.77011252     0.15600
C822        C  0.13220602  0.68291322  0.76887592    -0.18900
C823        C  0.08215263  0.66842501  0.80198486    -0.20700
C824        C  0.04833174  0.66035892  0.80339870    -0.13300
C825        C  0.02959495  0.65808561  0.77297915     0.03400
C826        C  0.04580731  0.66397486  0.74074613    -0.25400
H827        H  0.14285086  0.69186074  0.68148445     0.08500
H828        H  0.08324393  0.67725701  0.68330304     0.12100
H829        H  0.14573886  0.68435660  0.79289049     0.12000
H830        H  0.09575213  0.66992512  0.82593683     0.11800
H831        H  0.03690463  0.65579931  0.82863735     0.12300
H832        H  0.03183750  0.66232541  0.71705262     0.14300
C833        C  0.64463649  0.64757770  0.03242565    -0.05700
C834        C  0.62717213  0.65637565  0.56222464    -0.05700
C835        C  0.59347551  0.66572079  0.56032014    -0.23800
C836        C  0.57666856  0.66646372  0.52858345     0.18400
C837        C  0.59377596  0.65642948  0.99888326     0.15600
C838        C  0.62734167  0.64696355  0.00101898    -0.18900
C839        C  0.57741307  0.65689371  0.96713079    -0.20700
C840        C  0.54469277  0.66817093  0.96440874    -0.13300
C841        C  0.52739248  0.67927183  0.99337940     0.03400
C842        C  0.54345279  0.67777643  0.52571054    -0.25400
H843        H  0.63983715  0.65710731  0.58676350     0.08500
H844        H  0.58082151  0.67312749  0.58348251     0.12100
H845        H  0.64027212  0.63997876  0.97782104     0.12000
H846        H  0.59014564  0.64909155  0.94416229     0.11800
H847        H  0.53315786  0.66861495  0.93920646     0.12300
H848        H  0.53049004  0.68600566  0.54835311     0.14300
C849        C  0.85161748  0.64214639  0.61230676    -0.05700
C850        C  0.88272090  0.65751698  0.60510813    -0.05700
C851        C  0.90810879  0.65656009  0.62979647    -0.23800
C852        C  0.90290497  0.64033449  0.66229474     0.18400
C853        C  0.87241820  0.62336060  0.66909129     0.15600
C854        C  0.84719557  0.62408763  0.64405168    -0.18900
C855        C  0.86692247  0.60725657  0.70149884    -0.20700
C856        C  0.89046943  0.60953622  0.72759935    -0.13300
C857        C  0.92025700  0.62765335  0.72186982     0.03400
C858        C  0.92688300  0.64208415  0.68863467    -0.25400
H859        H  0.88705167  0.67147680  0.58084356     0.08500
H860        H  0.93133382  0.66953922  0.62391241     0.12100
H861        H  0.82354043  0.61192085  0.65002165     0.12000
H862        H  0.84385295  0.59390000  0.70709998     0.11800
H863        H  0.88485235  0.59778174  0.75276250     0.12300
H864        H  0.94965541  0.65619048  0.68384811     0.14300
C865        C  0.92972574  0.64042368  0.84609453    -0.05700
C866        C  0.93742319  0.66551972  0.86844833    -0.05700
C867        C  0.91879904  0.66889835  0.89875166    -0.23800
C868        C  0.89247403  0.64693656  0.90736154     0.18400
C869        C  0.88597007  0.62039844  0.88605060     0.15600
C870        C  0.90448169  0.61743485  0.85546479    -0.18900
C871        C  0.86010871  0.59808590  0.89490281    -0.20700
C872        C  0.83936404  0.60328054  0.92322530    -0.13300
C873        C  0.84404171  0.63091343  0.94327205     0.03400
C874        C  0.87158061  0.65194740  0.93592946    -0.25400
H875        H  0.95681844  0.68348009  0.86165219     0.08500
H876        H  0.92432945  0.68925304  0.91488164     0.12100
H877        H  0.89869642  0.59778443  0.83847883     0.12000
H878        H  0.85510799  0.57731658  0.87915510     0.11800
H879        H  0.81868357  0.58639246  0.92844612     0.12300
H880        H  0.87574330  0.67320767  0.95124045     0.15500
C881        C  0.76577610  0.81434257  0.70851709    -0.05700
C882        C  0.79166019  0.82063711  0.68434510    -0.05700
C883        C  0.79322966  0.80353089  0.65406237    -0.23800
C884        C  0.76851484  0.78029097  0.64716811     0.18400
C885        C  0.74170008  0.77469687  0.67084780     0.15600
C886        C  0.74073474  0.79143125  0.70166455    -0.18900
C887        C  0.71663631  0.75200455  0.66358691    -0.20700
C888        C  0.71924112  0.73342467  0.63439086    -0.13300
C889        C  0.74700333  0.73708877  0.61193155     0.03400
C890        C  0.77088393  0.76163189  0.61772445    -0.25400
H891        H  0.81105820  0.83849293  0.68922335     0.08500
H892        H  0.81387096  0.80827380  0.63622473     0.12100
H893        H  0.72044034  0.78700122  0.72003120     0.12000
H894        H  0.69564602  0.74777171  0.68109037     0.11800
H895        H  0.70027301  0.71490251  0.63036946     0.12300
H896        H  0.79241169  0.76470306  0.60070663     0.14300
C897        C  0.75858336  0.81830039  0.83517775    -0.05700
C898        C  0.77751367  0.82923173  0.86279630    -0.05700
C899        C  0.77839836  0.81081922  0.89439788    -0.23800
C900        C  0.76003242  0.78132438  0.89909751     0.18400
C901        C  0.73965307  0.77098114  0.87201720     0.15600
C902        C  0.73916494  0.78941823  0.84023424    -0.18900
C903        C  0.72103002  0.74171426  0.87673285    -0.20700
C904        C  0.72398825  0.72190410  0.90718379    -0.13300
C905        C  0.74553594  0.73096118  0.93366744     0.03400
C906        C  0.76271693  0.76136097  0.92982938    -0.25400
H907        H  0.79276612  0.85134273  0.85949671     0.08500
H908        H  0.79408271  0.81923212  0.91485531     0.12100
H909        H  0.72425461  0.78092330  0.81919208     0.12000
H910        H  0.70499559  0.73357699  0.85642456     0.11800
H911        H  0.71020531  0.69880412  0.90946233     0.12300
H912        H  0.77947322  0.76867987  0.94990938     0.14300
C913        C  0.75184387  0.53548406  0.54378752    -0.05700
C914        C  0.76342101  0.51855103  0.57400998    -0.05700
C915        C  0.77074627  0.48471816  0.57409037    -0.23800
C916        C  0.76688141  0.46745019  0.54387109     0.18400
C917        C  0.75381044  0.48407685  0.01398991     0.15600
C918        C  0.74594336  0.51764244  0.01432280    -0.18900
C919        C  0.75011578  0.46732773  0.98360642    -0.20700
C920        C  0.76051098  0.43466468  0.98226140    -0.13300
C921        C  0.77446653  0.41791549  0.51139783     0.03400
C922        C  0.77688795  0.43428004  0.54250512    -0.25400
H923        H  0.76795674  0.53166271  0.59718096     0.08500
H924        H  0.78049622  0.47236697  0.59737036     0.12100
H925        H  0.73662996  0.53019020  0.99093115     0.12000
H926        H  0.73999392  0.47976769  0.96054788     0.11800
H927        H  0.75794642  0.42267096  0.95809614     0.12300
H928        H  0.78753028  0.42167857  0.56521605     0.14300
C929        C  0.91129107  0.15587346  0.75402758    -0.05700
C930        C  0.93309526  0.14362390  0.77995971    -0.05700
C931        C  0.96694532  0.15230699  0.77912827    -0.23800
C932        C  0.97956436  0.17386073  0.75262407     0.18400
C933        C  0.95775337  0.18638949  0.72649071     0.15600
C934        C  0.92390957  0.17707824  0.72716184    -0.18900
C935        C  0.97012369  0.20811886  0.70011007    -0.20700
C936        C  0.00393568  0.21643825  0.69886623    -0.13300
C937        C  0.02607368  0.20353771  0.72413600     0.03400
C938        C  0.01362191  0.18275995  0.75147986    -0.25400
H939        H  0.92384556  0.12741202  0.80107738     0.08500
H940        H  0.98316827  0.14239143  0.79937363     0.12100
H941        H  0.90718160  0.18716084  0.70742511     0.12000
H942        H  0.95377427  0.21822893  0.68007046     0.11800
H943        H  0.01297982  0.23266193  0.67765108     0.12300
H944        H  0.03057168  0.17249809  0.77089921     0.14300
C945        C  0.80320727  0.04189218  0.77394268    -0.05700
C946        C  0.80134787  0.02676060  0.80756056    -0.05700
C947        C  0.79511729  0.99293338  0.81271426    -0.23800
C948        C  0.79069478  0.97341326  0.78438855     0.18400
C949        C  0.79301394  0.98817749  0.75049277     0.15600
C950        C  0.79924796  0.02226040  0.74545730    -0.18900
C951        C  0.78872207  0.96865724  0.72215748    -0.20700
C952        C  0.78208344  0.93492315  0.72728278    -0.13300
C953        C  0.77953294  0.91990319  0.76088481     0.03400
C954        C  0.78387966  0.93942876  0.78940505    -0.25400
H955        H  0.80416577  0.04117295  0.83012532     0.08500
H956        H  0.79349266  0.98211330  0.83888065     0.12100
H957        H  0.80056870  0.03349905  0.71944150     0.12000
H958        H  0.79041071  0.97947701  0.69599749     0.11800
H959        H  0.77884396  0.92063704  0.70469580     0.12300
H960        H  0.78206250  0.92826554  0.81542641     0.14300
C961        C  0.81562091  0.31235643  0.56504377    -0.05700
C962        C  0.83267974  0.28239859  0.56134281    -0.05700
C963        C  0.83513308  0.25912392  0.58903890    -0.23800
C964        C  0.82022441  0.26520088  0.62086610     0.18400
C965        C  0.80442229  0.29585989  0.62546229     0.15600
C966        C  0.80260476  0.31946673  0.59764065    -0.18900
C967        C  0.78919610  0.30166186  0.65726438    -0.20700
C968        C  0.78789562  0.27661302  0.68350625    -0.13300
C969        C  0.80206241  0.24542948  0.67851013     0.03400
C970        C  0.81934814  0.24041328  0.64750561    -0.25400
H971        H  0.84329579  0.27643169  0.53664300     0.08500
H972        H  0.84753980  0.23584710  0.58515125     0.12100
H973        H  0.78936640  0.34242600  0.60087325     0.12000
H974        H  0.77714472  0.32507300  0.66135922     0.11800
H975        H  0.77465414  0.28130309  0.70722898     0.12300
H976        H  0.83059325  0.21662377  0.64328317     0.14300
C977        C  0.80267239  0.32504303  0.93980657    -0.05700
C978        C  0.77931140  0.33406963  0.91413442    -0.05700
C979        C  0.77690717  0.31608999  0.88435481    -0.23800
C980        C  0.79801207  0.28901051  0.87977491     0.18400
C981        C  0.82295714  0.28129042  0.90450942     0.15600
C982        C  0.82511479  0.29929766  0.93424822    -0.18900
C983        C  0.84441262  0.25466144  0.90000433    -0.20700
C984        C  0.83988885  0.23443033  0.87246089    -0.13300
C985        C  0.81372219  0.24031353  0.84888867     0.03400
C986        C  0.79360312  0.26851953  0.85195322    -0.25400
H987        H  0.76181571  0.35395151  0.91786499     0.08500
H988        H  0.75782045  0.32261816  0.86556166     0.12100
H989        H  0.84353539  0.29248576  0.95370292     0.12000
H990        H  0.86388958  0.24867860  0.91854222     0.11800
H991        H  0.85601437  0.21314495  0.87067984     0.12300
H992        H  0.77346204  0.27351892  0.83391315     0.14300
C993        C  0.70109889  0.14319138  0.68601346    -0.05700
C994        C  0.67029937  0.15906721  0.69131227    -0.05700
C995        C  0.64491396  0.15862949  0.66656841    -0.23800
C996        C  0.64976031  0.14248399  0.63577204     0.18400
C997        C  0.67982724  0.12489652  0.63112142     0.15600
C998        C  0.70504018  0.12507846  0.65625489    -0.18900
C999        C  0.68499826  0.10870684  0.60056847    -0.20700
C1000       C  0.66168072  0.11146475  0.57405888    -0.13300
C1001       C  0.63241388  0.13039822  0.57725700     0.03400
C1002       C  0.62597110  0.14492466  0.60888725    -0.25400
H1003       H  0.66624161  0.17303952  0.71404024     0.08500
H1004       H  0.62201581  0.17201228  0.67095141     0.12100
H1005       H  0.72845295  0.11263203  0.65163045     0.12000
H1006       H  0.70769224  0.09484716  0.59661503     0.11800
H1007       H  0.66723013  0.09946719  0.55035061     0.12300
H1008       H  0.60364096  0.15959735  0.61182668     0.14300
C1009       C  0.71805659  0.13422189  0.85969156    -0.05700
C1010       C  0.72996082  0.11621713  0.88914451    -0.05700
C1011       C  0.71013472  0.11186090  0.91869594    -0.23800
C1012       C  0.67807967  0.12541006  0.91930775     0.18400
C1013       C  0.66492828  0.14147906  0.88912444     0.15600
C1014       C  0.68489868  0.14548046  0.85931987    -0.18900
C1015       C  0.63270422  0.15483672  0.88989443    -0.20700
C1016       C  0.61441195  0.15381972  0.92078995    -0.13300
C1017       C  0.62810080  0.13938876  0.95131362     0.03400
C1018       C  0.65959598  0.12438403  0.95007477    -0.25400
H1019       H  0.75527237  0.10686884  0.89006118     0.08500
H1020       H  0.72040281  0.09912616  0.94151801     0.12100
H1021       H  0.67530411  0.15910036  0.83668645     0.12000
H1022       H  0.62210823  0.16701458  0.86693616     0.11800
H1023       H  0.59003495  0.16531786  0.92101000     0.12300
H1024       H  0.67023302  0.11272039  0.97330079     0.14300
C1025       C  0.52569023  0.16134464  0.01562482    -0.05700
C1026       C  0.50644589  0.16362617  0.54587489    -0.05700
C1027       C  0.47237458  0.17153688  0.54388797    -0.23800
C1028       C  0.45695485  0.17734647  0.51163221     0.18400
C1029       C  0.47606818  0.17518584  0.98112751     0.15600
C1030       C  0.51004087  0.16724044  0.98331278    -0.18900
C1031       C  0.46093565  0.18095279  0.94882248    -0.20700
C1032       C  0.42704736  0.18883523  0.94664991    -0.13300
C1033       C  0.40752771  0.19099405  0.97673625     0.03400
C1034       C  0.42280281  0.18517242  0.50926499    -0.25400
H1035       H  0.51765375  0.15919404  0.57102081     0.08500
H1036       H  0.45805834  0.17307115  0.56761018     0.12100
H1037       H  0.52423098  0.16562654  0.95950707     0.12000
H1038       H  0.47532776  0.17928704  0.92515357     0.11800
H1039       H  0.41604511  0.19288074  0.92134123     0.12300
H1040       H  0.40815171  0.18664881  0.53279009     0.14300
loop_ 
_geom_bond_atom_site_label_1 
_geom_bond_atom_site_label_2 
_geom_bond_distance 
_geom_bond_site_symmetry_2 
_ccdc_geom_bond_type 
C1            N2   1.358       .  A
C1          N526   1.373       .  A
C1          C505   1.491       .  S
N2            C3   1.349       .  A
C3          N524   1.351       .  A
C3          C497   1.475       .  S
N4            C5   1.356       .  A
N4          C523   1.351   1_554  A
C5            N6   1.370       .  A
C5          C481   1.493       .  S
N6          C521   1.373       .  A
Fe7          O23   2.087       .  S
Fe7          O13   2.085       .  S
Fe7          O20   2.086       .  S
Fe7          O12   2.067       .  S
Fe7          O18   1.976       .  S
Fe8          O11   2.044       .  S
Fe8          O15   2.036       .  S
Fe8          O19   2.045       .  S
Fe8          O24   2.042       .  S
Fe8          O18   1.975       .  S
Fe9          O27   2.064       .  S
Fe9          O14   2.076       .  S
Fe9          O21   2.069       .  S
Fe9          O10   2.061       .  S
Fe9          O18   1.978       .  S
O10          C17   1.271       .  A
O11          C25   1.266       .  A
O12          C17   1.273       .  A
O13          C16   1.272       .  A
O14          C26   1.269       .  A
O15          C28   1.264       .  A
C16         C473   1.496       .  S
C16          O21   1.268       .  A
C17         C449   1.481       .  S
O19          C22   1.263       .  A
O20          C22   1.271       .  A
C22         C409   1.480       .  S
O23          C28   1.274       .  A
O24          C26   1.265       .  A
C25         C489   1.475       .  S
C25          O27   1.270       .  A
C26         C465   1.482       .  S
C28         C425   1.482       .  S
C29          N34   1.361       .  A
C29         N550   1.360   1_554  A
C29         C401   1.479       .  S
N30          C31   1.355       .  A
N30         C549   1.360       .  A
C31         N552   1.355       .  A
C31         C457   1.475       .  S
N32          C33   1.356       .  A
N32         C551   1.355   1_554  A
C33          N34   1.360       .  A
C33         C441   1.479       .  S
C35          N36   1.352       .  A
C35          N40   1.362       .  A
C35         C433   1.481       .  S
N36          C37   1.350       .  A
C37          N38   1.359       .  A
C37         C361   1.468       .  S
N38          C39   1.363       .  A
C39          N40   1.364       .  A
C39         C377   1.482       .  S
Fe41         O57   2.058       .  S
Fe41         O47   2.085       .  S
Fe41         O54   2.091       .  S
Fe41         O46   2.037       .  S
Fe41        O572   1.972       .  S
Fe42         O45   2.055       .  S
Fe42         O49   2.057       .  S
Fe42         O53   2.050       .  S
Fe42         O58   2.062       .  S
Fe42         O52   1.963       .  S
Fe43         O61   2.084       .  S
Fe43         O48   2.073       .  S
Fe43        O575   2.062       .  S
Fe43        O564   2.085       .  S
Fe43         O52   1.975       .  S
O44        Fe563   2.085       .  S
O44          C51   1.273       .  A
O45          C59   1.269       .  A
O46          C51   1.264       .  A
O47          C50   1.275       .  A
O48          C60   1.271       .  A
O49         C582   1.267       .  A
C50         C329   1.489       .  S
C50          O55   1.270       .  A
C51         C369   1.479       .  S
O52        Fe561   1.972       .  S
O53          C56   1.269       .  A
O54         C576   1.274       .  A
O55        Fe563   2.062       .  S
C56         C313   1.487       .  S
C56         O574   1.274       .  A
O57          C62   1.265       .  A
O58          C60   1.269       .  A
C59         C353   1.485       .  S
C59          O61   1.273       .  A
C60         C385   1.486       .  S
C62         C393   1.480       .  S
C62         O569   1.267       .  A
C63          N64   1.367       .  A
C63          N68   1.361       .  A
C63         C305   1.490   1_655  S
N64          C65   1.366       .  A
C65          N66   1.359       .  A
C65         C337   1.486       .  S
N66          C67   1.353       .  A
C67          N68   1.353       .  A
C67         C345   1.476       .  S
C69          N70   1.363       .  A
C69          N74   1.362       .  A
C69         C281   1.482       .  S
N70          C71   1.360   1_565  A
C71          N72   1.357       .  A
C71         C265   1.477       .  S
N72          C73   1.356       .  A
C73          N74   1.358   1_545  A
C73         C257   1.482       .  S
Fe75         O91   2.077   1_554  S
Fe75         O81   2.036       .  S
Fe75         O88   2.045       .  S
Fe75         O80   2.077       .  S
Fe75        O606   1.964   1_554  S
Fe76         O79   2.096       .  S
Fe76         O83   2.058       .  S
Fe76         O87   2.099       .  S
Fe76         O92   2.047       .  S
Fe76         O86   1.960       .  S
Fe77         O95   2.051       .  S
Fe77         O82   2.092       .  S
Fe77        O609   2.088       .  S
Fe77        O598   2.057       .  S
Fe77         O86   1.968       .  S
O78        Fe597   2.057   1_554  S
O78          C85   1.267       .  A
O79          C93   1.275       .  A
O80          C85   1.271       .  A
O81          C84   1.266       .  A
O82          C94   1.274       .  A
O83         C616   1.267       .  A
C84         C225   1.477       .  S
C84          O89   1.275       .  A
C85         C249   1.485       .  S
O86        Fe595   1.964       .  S
O87          C90   1.277       .  A
O88         C610   1.266   1_554  A
O89        Fe597   2.088   1_554  S
C90         C513   1.487       .  S
C90         O608   1.266       .  A
O91          C96   1.270       .  A
O92          C94   1.268       .  A
C93         C233   1.489       .  S
C93          O95   1.267       .  A
C94         C273   1.487       .  S
C96         C209   1.486       .  S
C96         O603   1.267       .  A
C97          N98   1.367       .  A
C97         N102   1.356       .  A
C97         C417   1.477       .  S
N98          C99   1.368       .  A
C99         N100   1.359       .  A
C99         C241   1.491       .  S
N100        C101   1.353       .  A
C101        N102   1.349       .  A
C101        C217   1.466       .  S
C103        N108   1.364       .  A
C103        N624   1.362       .  A
C103        C201   1.485       .  S
N104        C105   1.357       .  A
N104        C623   1.362   1_554  A
C105        N626   1.354   1_554  A
C105        C185   1.480       .  S
N106        C107   1.354       .  A
N106        C625   1.354       .  A
C107        N108   1.359       .  A
C107        C169   1.477       .  S
Fe109       O125   2.041       .  S
Fe109       O115   2.078       .  S
Fe109       O122   2.080       .  S
Fe109       O114   2.040       .  S
Fe109       O120   1.952       .  S
Fe110       O113   2.040       .  S
Fe110       O117   2.103       .  S
Fe110       O121   2.057       .  S
Fe110       O126   2.095       .  S
Fe110       O120   1.955       .  S
Fe111       O129   2.090       .  S
Fe111       O116   2.046       .  S
Fe111       O123   2.050       .  S
Fe111       O112   2.094       .  S
Fe111       O120   1.958       .  S
O112        C119   1.275       .  A
O113        C127   1.267       .  A
O114        C119   1.267       .  A
O115        C118   1.272       .  A
O116        C128   1.267       .  A
O117        C130   1.277       .  A
C118        C177   1.480       .  S
C118        O123   1.266       .  A
C119        C145   1.482       .  S
O121        C124   1.267       .  A
O122        C124   1.271       .  A
C124        C289   1.484       .  S
O125        C130   1.267       .  A
O126        C128   1.275       .  A
C127        C193   1.479       .  S
C127        O129   1.275       .  A
C128        C153   1.486       .  S
C130        C297   1.487       .  S
C131        N136   1.360       .  A
C131        N652   1.365       .  A
C131        C321   1.488       .  S
N132        C133   1.366       .  A
N132        C651   1.365   1_554  A
C133        N654   1.357   1_554  A
C133        C161   1.486       .  S
N134        C135   1.354       .  A
N134        C653   1.357       .  A
C135        N136   1.353       .  A
C135        C137   1.477       .  S
C137        C138   1.406       .  A
C137        C142   1.403       .  A
C138        C139   1.399       .  A
C138        H147   1.083       .  S
C139        C140   1.403       .  A
C139        H148   1.084       .  S
C140        C146   1.406       .  A
C140        C141   1.414       .  A
C141        C143   1.398       .  A
C141        C142   1.400       .  A
C142        H149   1.085       .  S
C143        C144   1.392       .  A
C143        H150   1.084       .  S
C144        C145   1.408       .  A
C144        H151   1.083       .  S
C145        C146   1.407       .  A
C146        H152   1.084       .  S
C153        C154   1.410       .  A
C153        C158   1.406       .  A
C154        C155   1.397       .  A
C154        H163   1.083       .  S
C155        C156   1.400       .  A
C155        H164   1.083       .  S
C156        C162   1.407       .  A
C156        C157   1.415       .  A
C157        C159   1.399       .  A
C157        C158   1.406       .  A
C158        H165   1.084       .  S
C159        C160   1.396       .  A
C159        H166   1.083       .  S
C160        C161   1.410       .  A
C160        H167   1.083       .  S
C161        C162   1.406       .  A
C162        H168   1.084       .  S
C169        C170   1.406       .  A
C169        C174   1.405       .  A
C170        C171   1.394       .  A
C170        H179   1.083       .  S
C171        C172   1.399       .  A
C171        H180   1.084       .  S
C172        C178   1.402       .  A
C172        C173   1.415       .  A
C173        C175   1.401       .  A
C173        C174   1.406       .  A
C174        H181   1.084       .  S
C175        C176   1.398       .  A
C175        H182   1.083       .  S
C176        C177   1.407       .  A
C176        H183   1.083       .  S
C177        C178   1.404       .  A
C178        H184   1.084       .  S
C185        C186   1.406       .  A
C185        C190   1.404       .  A
C186        C187   1.401       .  A
C186        H195   1.083       .  S
C187        C188   1.404       .  A
C187        H196   1.084       .  S
C188        C194   1.407       .  A
C188        C189   1.413       .  A
C189        C191   1.398       .  A
C189        C190   1.397       .  A
C190        H197   1.085       .  S
C191        C192   1.391       .  A
C191        H198   1.084       .  S
C192        C193   1.407       .  A
C192        H199   1.083       .  S
C193        C194   1.408       .  A
C194        H200   1.084       .  S
C201        C206   1.408       .  A
C201        C722   1.408       .  A
C202        C203   1.397       .  A
C202        C721   1.408   1_554  A
C202        H211   1.082       .  S
C203        C204   1.401   1_554  A
C203        H212   1.084       .  S
C204        C210   1.405       .  A
C204        C725   1.413       .  A
C205        C207   1.401       .  A
C205        C206   1.405       .  A
C205        C724   1.413       .  A
C206        H213   1.084       .  S
C207        C208   1.397       .  A
C207        H214   1.084       .  S
C208        C729   1.408       .  A
C208        H215   1.082       .  S
C209        C210   1.408       .  A
C209        C728   1.408       .  A
C210        H216   1.085   1_556  S
C217        C218   1.404       .  A
C217        C222   1.399       .  A
C218        C219   1.397       .  A
C218        H227   1.083       .  S
C219        C220   1.402       .  A
C219        H228   1.084       .  S
C220        C226   1.403       .  A
C220        C221   1.415       .  A
C221        C223   1.398       .  A
C221        C222   1.399       .  A
C222        H229   1.086       .  S
C223        C224   1.392       .  A
C223        H230   1.085       .  S
C224        C225   1.408       .  A
C224        H231   1.083       .  S
C225        C226   1.405       .  A
C226        H232   1.085       .  S
C233        C234   1.410       .  A
C233        C238   1.406       .  A
C234        C235   1.399       .  A
C234        H243   1.083       .  S
C235        C236   1.401       .  A
C235        H244   1.083       .  S
C236        C242   1.411       .  A
C236        C237   1.415       .  A
C237        C239   1.398       .  A
C237        C238   1.407       .  A
C238        H245   1.083       .  S
C239        C240   1.395       .  A
C239        H246   1.083       .  S
C240        C241   1.411       .  A
C240        H247   1.083       .  S
C241        C242   1.408       .  A
C242        H248   1.083       .  S
C249        C250   1.408       .  A
C249        C254   1.407       .  A
C250        C251   1.399       .  A
C250        H259   1.083       .  S
C251        C252   1.402       .  A
C251        H260   1.083       .  S
C252        C258   1.407       .  A
C252        C253   1.414       .  A
C253        C255   1.401       .  A
C253        C254   1.404       .  A
C254        H261   1.084       .  S
C255        C256   1.396       .  A
C255        H262   1.083       .  S
C256        C257   1.406       .  A
C256        H263   1.083       .  S
C257        C258   1.408       .  A
C258        H264   1.084       .  S
C265        C266   1.404       .  A
C265        C270   1.403       .  A
C266        C267   1.402       .  A
C266        H275   1.083   1_545  S
C267        C268   1.405       .  A
C267        H276   1.083       .  S
C268        C274   1.409       .  A
C268        C269   1.414       .  A
C269        C271   1.398       .  A
C269        C270   1.401       .  A
C270        H277   1.085       .  S
C271        C272   1.393       .  A
C271        H278   1.084       .  S
C272        C273   1.409       .  A
C272        H279   1.083       .  S
C273        C274   1.410       .  A
C274        H280   1.084       .  S
C281        C282   1.406       .  A
C281        C286   1.407       .  A
C282        C283   1.397       .  A
C282        H291   1.084       .  S
C283        C284   1.402       .  A
C283        H292   1.082       .  S
C284        C290   1.404       .  A
C284        C285   1.414       .  A
C285        C287   1.402       .  A
C285        C286   1.406       .  A
C286        H293   1.083       .  S
C287        C288   1.398       .  A
C287        H294   1.082       .  S
C288        C289   1.407       .  A
C288        H295   1.084       .  S
C289        C290   1.408       .  A
C290        H296   1.083       .  S
C297        C298   1.407       .  A
C297        C302   1.407       .  A
C298        C299   1.405       .  A
C298        H307   1.083       .  S
C299        C300   1.406       .  A
C299        H308   1.083       .  S
C300        C306   1.413       .  A
C300        C301   1.413       .  A
C301        C303   1.398       .  A
C301        C302   1.401       .  A
C302        H309   1.084       .  S
C303        C304   1.392       .  A
C303        H310   1.084       .  S
C304        C305   1.409       .  A
C304        H311   1.083       .  S
C305        C306   1.411       .  A
C306        H312   1.084       .  S
C313        C318   1.406       .  A
C313        C834   1.407       .  A
C314        C315   1.404       .  A
C314        C833   1.407       .  A
C314        H323   1.083       .  S
C315        C316   1.405       .  A
C315        H324   1.084       .  S
C316        C322   1.411       .  A
C316        C837   1.413   1_554  A
C317        C319   1.398       .  A
C317        C318   1.401       .  A
C317        C836   1.413       .  A
C318        H325   1.084       .  S
C319        C320   1.392       .  A
C319        H326   1.084       .  S
C320        C321   1.409       .  A
C320        H327   1.083       .  S
C321        C842   1.411       .  A
C322        C841   1.411   1_554  A
C322        H328   1.084       .  S
C329        C330   1.410       .  A
C329        C334   1.406       .  A
C330        C331   1.400       .  A
C330        H339   1.083       .  S
C331        C332   1.402       .  A
C331        H340   1.083       .  S
C332        C338   1.411       .  A
C332        C333   1.415       .  A
C333        C335   1.399       .  A
C333        C334   1.405       .  A
C334        H341   1.084       .  S
C335        C336   1.394       .  A
C335        H342   1.083       .  S
C336        C337   1.408       .  A
C336        H343   1.083       .  S
C337        C338   1.408       .  A
C338        H344   1.084       .  S
C345        C346   1.404       .  A
C345        C350   1.404       .  A
C346        C347   1.399       .  A
C346        H355   1.083       .  S
C347        C348   1.403       .  A
C347        H356   1.083       .  S
C348        C354   1.406       .  A
C348        C349   1.414       .  A
C349        C351   1.400       .  A
C349        C350   1.403       .  A
C350        H357   1.084       .  S
C351        C352   1.396       .  A
C351        H358   1.084       .  S
C352        C353   1.408       .  A
C352        H359   1.083       .  S
C353        C354   1.409       .  A
C354        H360   1.084       .  S
C361        C362   1.405       .  A
C361        C366   1.400       .  A
C362        C363   1.395       .  A
C362        H371   1.084       .  S
C363        C364   1.400       .  A
C363        H372   1.083       .  S
C364        C370   1.404       .  A
C364        C365   1.416       .  A
C365        C367   1.398       .  A
C365        C366   1.404       .  A
C366        H373   1.084       .  S
C367        C368   1.395       .  A
C367        H374   1.083       .  S
C368        C369   1.409       .  A
C368        H375   1.083       .  S
C369        C370   1.404       .  A
C370        H376   1.084       .  S
C377        C378   1.406       .  A
C377        C382   1.406       .  A
C378        C379   1.400       .  A
C378        H387   1.083       .  S
C379        C380   1.403       .  A
C379        H388   1.083       .  S
C380        C386   1.408       .  A
C380        C381   1.414       .  A
C381        C383   1.400       .  A
C381        C382   1.406       .  A
C382        H389   1.084       .  S
C383        C384   1.396       .  A
C383        H390   1.083       .  S
C384        C385   1.408       .  A
C384        H391   1.083       .  S
C385        C386   1.408       .  A
C386        H392   1.084       .  S
C393        C394   1.407       .  A
C393        C918   1.404       .  A
C394        C395   1.401       .  A
C394        H403   1.083       .  S
C395        C396   1.404       .  A
C395        H404   1.084       .  S
C396        C402   1.406       .  A
C396        C917   1.413       .  A
C397        C399   1.398       .  A
C397        C398   1.396       .  A
C397        C916   1.413       .  A
C398        C913   1.404       .  A
C398        H405   1.084       .  S
C399        C400   1.391       .  A
C399        H406   1.084       .  S
C400        C921   1.406       .  A
C400        H407   1.083       .  S
C401        C402   1.409       .  A
C401        C920   1.406   1_554  A
C402        H408   1.084       .  S
C409        C410   1.407       .  A
C409        C414   1.403       .  A
C410        C411   1.399       .  A
C410        H419   1.083       .  S
C411        C412   1.401       .  A
C411        H420   1.084       .  S
C412        C418   1.409   1_655  A
C412        C413   1.417       .  A
C413        C415   1.399       .  A
C413        C414   1.405       .  A
C414        H421   1.085       .  S
C415        C416   1.394   1_655  A
C415        H422   1.084       .  S
C416        C417   1.407       .  A
C416        H423   1.083       .  S
C417        C418   1.404       .  A
C418        H424   1.084       .  S
C425        C426   1.411       .  A
C425        C430   1.403       .  A
C426        C427   1.394   1_545  A
C426        H435   1.083       .  S
C427        C428   1.398       .  A
C427        H436   1.084       .  S
C428        C434   1.404       .  A
C428        C429   1.416       .  A
C429        C431   1.398       .  A
C429        C430   1.404   1_565  A
C430        H437   1.084       .  S
C431        C432   1.393       .  A
C431        H438   1.084       .  S
C432        C433   1.410       .  A
C432        H439   1.083       .  S
C433        C434   1.404       .  A
C434        H440   1.084       .  S
C441        C442   1.407       .  A
C441        C446   1.406       .  A
C442        C443   1.394       .  A
C442        H451   1.083       .  S
C443        C444   1.399       .  A
C443        H452   1.083       .  S
C444        C450   1.400       .  A
C444        C445   1.414       .  A
C445        C447   1.402       .  A
C445        C446   1.404       .  A
C446        H453   1.084       .  S
C447        C448   1.397       .  A
C447        H454   1.083       .  S
C448        C449   1.407       .  A
C448        H455   1.083       .  S
C449        C450   1.406       .  A
C450        H456   1.084       .  S
C457        C458   1.406       .  A
C457        C462   1.402       .  A
C458        C459   1.400       .  A
C458        H467   1.083       .  S
C459        C460   1.404       .  A
C459        H468   1.083       .  S
C460        C466   1.406       .  A
C460        C461   1.414       .  A
C461        C463   1.398       .  A
C461        C462   1.399       .  A
C462        H469   1.084       .  S
C463        C464   1.392       .  A
C463        H470   1.084       .  S
C464        C465   1.408       .  A
C464        H471   1.083       .  S
C465        C466   1.409       .  A
C466        H472   1.084       .  S
C473        C474   1.411       .  A
C473        C478   1.407       .  A
C474        C475   1.403       .  A
C474        H483   1.083       .  S
C475        C476   1.403       .  A
C475        H484   1.083       .  S
C476        C482   1.417       .  A
C476        C477   1.416       .  A
C477        C479   1.397       .  A
C477        C478   1.408       .  A
C478        H485   1.084       .  S
C479        C480   1.394       .  A
C479        H486   1.083       .  S
C480        C481   1.410       .  A
C480        H487   1.083       .  S
C481        C482   1.409       .  A
C482        H488   1.083       .  S
C489        C490   1.408       .  A
C489        C494   1.405       .  A
C490        C491   1.391       .  A
C490        H499   1.083       .  S
C491        C492   1.398       .  A
C491        H500   1.084       .  S
C492        C498   1.397       .  A
C492        C493   1.414       .  A
C493        C495   1.401       .  A
C493        C494   1.401       .  A
C494        H501   1.084       .  S
C495        C496   1.397       .  A
C495        H502   1.084       .  S
C496        C497   1.407       .  A
C496        H503   1.083       .  S
C497        C498   1.403       .  A
C498        H504   1.084       .  S
C505        C510   1.413       .  A
C505       C1026   1.405       .  A
C506        C507   1.404       .  A
C506       C1025   1.405       .  A
C506        H515   1.082       .  S
C507        C508   1.407       .  A
C507        H516   1.084       .  S
C508        C514   1.407       .  A
C508       C1029   1.410   1_554  A
C509        C511   1.403       .  A
C509        C510   1.401       .  A
C509       C1028   1.410       .  A
C510        H517   1.084       .  S
C511        C512   1.397       .  A
C511        H518   1.084       .  S
C512        C513   1.405       .  A
C512        H519   1.083       .  S
C513       C1034   1.414       .  A
C514       C1033   1.414   1_554  A
C514        H520   1.084       .  S
C521        N522   1.358   1_554  A
C521       C1025   1.491       .  S
N522        C523   1.349       .  A
C523       C1017   1.475       .  S
N524        C525   1.356       .  A
C525        N526   1.370       .  A
C525       C1001   1.493       .  S
Fe527       O543   2.087       .  S
Fe527       O533   2.085       .  S
Fe527       O540   2.086       .  S
Fe527       O532   2.067       .  S
Fe527       O538   1.976       .  S
Fe528       O531   2.044       .  S
Fe528       O535   2.036       .  S
Fe528       O539   2.045       .  S
Fe528       O544   2.042       .  S
Fe528       O538   1.975       .  S
Fe529       O547   2.064       .  S
Fe529       O534   2.076       .  S
Fe529       O541   2.069       .  S
Fe529       O530   2.061       .  S
Fe529       O538   1.978       .  S
O530        C537   1.271       .  A
O531        C545   1.266       .  A
O532        C537   1.273       .  A
O533        C536   1.272       .  A
O534        C546   1.269       .  A
O535        C548   1.264       .  A
C536        C993   1.496       .  S
C536        O541   1.268       .  A
C537        C969   1.481       .  S
O539        C542   1.263       .  A
O540        C542   1.271       .  A
C542        C929   1.480       .  S
O543        C548   1.274       .  A
O544        C546   1.265       .  A
C545       C1009   1.475       .  S
C545        O547   1.270       .  A
C546        C985   1.482       .  S
C548        C945   1.482       .  S
C549        N554   1.361       .  A
C549        C921   1.479       .  S
N550        C551   1.355       .  A
C551        C977   1.475       .  S
N552        C553   1.356       .  A
C553        N554   1.360       .  A
C553        C961   1.479       .  S
C555        N556   1.352       .  A
C555        N560   1.362       .  A
C555        C953   1.481       .  S
N556        C557   1.350       .  A
C557        N558   1.359       .  A
C557        C881   1.468       .  S
N558        C559   1.363       .  A
C559        N560   1.364       .  A
C559        C897   1.482       .  S
Fe561       O577   2.058       .  S
Fe561       O567   2.085       .  S
Fe561       O574   2.091       .  S
Fe561       O566   2.037       .  S
Fe562       O565   2.055       .  S
Fe562       O569   2.057   1_556  S
Fe562       O573   2.050   1_556  S
Fe562       O578   2.062       .  S
Fe562       O572   1.963   1_556  S
Fe563       O581   2.084   1_554  S
Fe563       O568   2.073   1_554  S
Fe563       O572   1.975       .  S
O564        C571   1.273       .  A
O565        C579   1.269       .  A
O566        C571   1.264       .  A
O567        C570   1.275       .  A
O568        C580   1.271       .  A
C570        C849   1.489       .  S
C570        O575   1.270       .  A
C571        C889   1.479       .  S
O573        C576   1.269       .  A
C576        C833   1.487       .  S
O577        C582   1.265       .  A
O578        C580   1.269       .  A
C579        C873   1.485       .  S
C579        O581   1.273       .  A
C580        C905   1.486       .  S
C582        C913   1.480       .  S
C583        N584   1.367       .  A
C583        N588   1.361       .  A
C583        C825   1.490   1_655  S
N584        C585   1.366       .  A
C585        N586   1.359       .  A
C585        C857   1.486       .  S
N586        C587   1.353       .  A
C587        N588   1.353       .  A
C587        C865   1.476       .  S
C589        N590   1.363       .  A
C589        N594   1.362       .  A
C589        C801   1.482       .  S
N590        C591   1.360   1_565  A
C591        N592   1.357       .  A
C591        C785   1.477       .  S
N592        C593   1.356       .  A
C593        N594   1.358   1_545  A
C593        C777   1.482       .  S
Fe595       O611   2.077       .  S
Fe595       O601   2.036       .  S
Fe595       O608   2.045       .  S
Fe595       O600   2.077       .  S
Fe596       O599   2.096       .  S
Fe596       O603   2.058       .  S
Fe596       O607   2.099       .  S
Fe596       O612   2.047       .  S
Fe596       O606   1.960       .  S
Fe597       O615   2.051       .  S
Fe597       O602   2.092       .  S
Fe597       O606   1.968       .  S
O598        C605   1.267       .  A
O599        C613   1.275       .  A
O600        C605   1.271       .  A
O601        C604   1.266       .  A
O602        C614   1.274       .  A
C604        C745   1.477       .  S
C604        O609   1.275       .  A
C605        C769   1.485       .  S
O607        C610   1.277       .  A
C610       C1033   1.487       .  S
O611        C616   1.270       .  A
O612        C614   1.268       .  A
C613        C753   1.489       .  S
C613        O615   1.267       .  A
C614        C793   1.487       .  S
C616        C729   1.486       .  S
C617        N618   1.367       .  A
C617        N622   1.356       .  A
C617        C937   1.477       .  S
N618        C619   1.368       .  A
C619        N620   1.359       .  A
C619        C761   1.491       .  S
N620        C621   1.353       .  A
C621        N622   1.349       .  A
C621        C737   1.466       .  S
C623        N628   1.364       .  A
C623        C721   1.485       .  S
N624        C625   1.357       .  A
C625        C705   1.480       .  S
N626        C627   1.354       .  A
C627        N628   1.359       .  A
C627        C689   1.477       .  S
Fe629       O645   2.041       .  S
Fe629       O635   2.078       .  S
Fe629       O642   2.080       .  S
Fe629       O634   2.040       .  S
Fe629       O640   1.952       .  S
Fe630       O633   2.040       .  S
Fe630       O637   2.103       .  S
Fe630       O641   2.057       .  S
Fe630       O646   2.095       .  S
Fe630       O640   1.955       .  S
Fe631       O649   2.090       .  S
Fe631       O636   2.046       .  S
Fe631       O643   2.050       .  S
Fe631       O632   2.094       .  S
Fe631       O640   1.958       .  S
O632        C639   1.275       .  A
O633        C647   1.267       .  A
O634        C639   1.267       .  A
O635        C638   1.272       .  A
O636        C648   1.267       .  A
O637        C650   1.277       .  A
C638        C697   1.480       .  S
C638        O643   1.266       .  A
C639        C665   1.482       .  S
O641        C644   1.267       .  A
O642        C644   1.271       .  A
C644        C809   1.484       .  S
O645        C650   1.267       .  A
O646        C648   1.275       .  A
C647        C713   1.479       .  S
C647        O649   1.275       .  A
C648        C673   1.486       .  S
C650        C817   1.487       .  S
C651        N656   1.360       .  A
C651        C841   1.488       .  S
N652        C653   1.366       .  A
C653        C681   1.486       .  S
N654        C655   1.354       .  A
C655        N656   1.353       .  A
C655        C657   1.477       .  S
C657        C658   1.406       .  A
C657        C662   1.403       .  A
C658        C659   1.399       .  A
C658        H667   1.083       .  S
C659        C660   1.403       .  A
C659        H668   1.084       .  S
C660        C666   1.406       .  A
C660        C661   1.414       .  A
C661        C663   1.398       .  A
C661        C662   1.400       .  A
C662        H669   1.085       .  S
C663        C664   1.392       .  A
C663        H670   1.084       .  S
C664        C665   1.408       .  A
C664        H671   1.083       .  S
C665        C666   1.407       .  A
C666        H672   1.084       .  S
C673        C674   1.410       .  A
C673        C678   1.406       .  A
C674        C675   1.397       .  A
C674        H683   1.083       .  S
C675        C676   1.400       .  A
C675        H684   1.083       .  S
C676        C682   1.407       .  A
C676        C677   1.415       .  A
C677        C679   1.399       .  A
C677        C678   1.406       .  A
C678        H685   1.084       .  S
C679        C680   1.396       .  A
C679        H686   1.083       .  S
C680        C681   1.410       .  A
C680        H687   1.083       .  S
C681        C682   1.406       .  A
C682        H688   1.084       .  S
C689        C690   1.406       .  A
C689        C694   1.405       .  A
C690        C691   1.394       .  A
C690        H699   1.083       .  S
C691        C692   1.399       .  A
C691        H700   1.084       .  S
C692        C698   1.402       .  A
C692        C693   1.415       .  A
C693        C695   1.401       .  A
C693        C694   1.406       .  A
C694        H701   1.084       .  S
C695        C696   1.398       .  A
C695        H702   1.083       .  S
C696        C697   1.407       .  A
C696        H703   1.083       .  S
C697        C698   1.404       .  A
C698        H704   1.084       .  S
C705        C706   1.406       .  A
C705        C710   1.404       .  A
C706        C707   1.401       .  A
C706        H715   1.083       .  S
C707        C708   1.404       .  A
C707        H716   1.084       .  S
C708        C714   1.407       .  A
C708        C709   1.413       .  A
C709        C711   1.398       .  A
C709        C710   1.397       .  A
C710        H717   1.085       .  S
C711        C712   1.391       .  A
C711        H718   1.084       .  S
C712        C713   1.407       .  A
C712        H719   1.083       .  S
C713        C714   1.408       .  A
C714        H720   1.084       .  S
C721        C726   1.408       .  A
C722        C723   1.397       .  A
C722        H731   1.082       .  S
C723        C724   1.401       .  A
C723        H732   1.084       .  S
C724        C730   1.405       .  A
C725        C727   1.401       .  A
C725        C726   1.405       .  A
C726        H733   1.084       .  S
C727        C728   1.397       .  A
C727        H734   1.084       .  S
C728        H735   1.082       .  S
C729        C730   1.408       .  A
C730        H736   1.085       .  S
C737        C738   1.404       .  A
C737        C742   1.399       .  A
C738        C739   1.397       .  A
C738        H747   1.083       .  S
C739        C740   1.402       .  A
C739        H748   1.084       .  S
C740        C746   1.403       .  A
C740        C741   1.415       .  A
C741        C743   1.398       .  A
C741        C742   1.399       .  A
C742        H749   1.086       .  S
C743        C744   1.392       .  A
C743        H750   1.085       .  S
C744        C745   1.408       .  A
C744        H751   1.083       .  S
C745        C746   1.405       .  A
C746        H752   1.085       .  S
C753        C754   1.410       .  A
C753        C758   1.406       .  A
C754        C755   1.399       .  A
C754        H763   1.083       .  S
C755        C756   1.401       .  A
C755        H764   1.083       .  S
C756        C762   1.411       .  A
C756        C757   1.415       .  A
C757        C759   1.398       .  A
C757        C758   1.407       .  A
C758        H765   1.083       .  S
C759        C760   1.395       .  A
C759        H766   1.083       .  S
C760        C761   1.411       .  A
C760        H767   1.083       .  S
C761        C762   1.408       .  A
C762        H768   1.083       .  S
C769        C770   1.408       .  A
C769        C774   1.407       .  A
C770        C771   1.399       .  A
C770        H779   1.083       .  S
C771        C772   1.402       .  A
C771        H780   1.083       .  S
C772        C778   1.407       .  A
C772        C773   1.414       .  A
C773        C775   1.401       .  A
C773        C774   1.404       .  A
C774        H781   1.084       .  S
C775        C776   1.396       .  A
C775        H782   1.083       .  S
C776        C777   1.406       .  A
C776        H783   1.083       .  S
C777        C778   1.408       .  A
C778        H784   1.084       .  S
C785        C786   1.404       .  A
C785        C790   1.403       .  A
C786        C787   1.402       .  A
C786        H795   1.083   1_545  S
C787        C788   1.405       .  A
C787        H796   1.083       .  S
C788        C794   1.409       .  A
C788        C789   1.414       .  A
C789        C791   1.398       .  A
C789        C790   1.401       .  A
C790        H797   1.085       .  S
C791        C792   1.393       .  A
C791        H798   1.084       .  S
C792        C793   1.409       .  A
C792        H799   1.083       .  S
C793        C794   1.410       .  A
C794        H800   1.084       .  S
C801        C802   1.406       .  A
C801        C806   1.407       .  A
C802        C803   1.397       .  A
C802        H811   1.084       .  S
C803        C804   1.402       .  A
C803        H812   1.082       .  S
C804        C810   1.404       .  A
C804        C805   1.414       .  A
C805        C807   1.402       .  A
C805        C806   1.406       .  A
C806        H813   1.083       .  S
C807        C808   1.398       .  A
C807        H814   1.082       .  S
C808        C809   1.407       .  A
C808        H815   1.084       .  S
C809        C810   1.408       .  A
C810        H816   1.083       .  S
C817        C818   1.407       .  A
C817        C822   1.407       .  A
C818        C819   1.405       .  A
C818        H827   1.083       .  S
C819        C820   1.406       .  A
C819        H828   1.083       .  S
C820        C826   1.413       .  A
C820        C821   1.413       .  A
C821        C823   1.398       .  A
C821        C822   1.401       .  A
C822        H829   1.084       .  S
C823        C824   1.392       .  A
C823        H830   1.084       .  S
C824        C825   1.409       .  A
C824        H831   1.083       .  S
C825        C826   1.411       .  A
C826        H832   1.084       .  S
C833        C838   1.406       .  A
C834        C835   1.404       .  A
C834        H843   1.083       .  S
C835        C836   1.405       .  A
C835        H844   1.084       .  S
C836        C842   1.411       .  A
C837        C839   1.398       .  A
C837        C838   1.401   1_556  A
C838        H845   1.084   1_554  S
C839        C840   1.392       .  A
C839        H846   1.084       .  S
C840        C841   1.409       .  A
C840        H847   1.083       .  S
C842        H848   1.084       .  S
C849        C850   1.410       .  A
C849        C854   1.406       .  A
C850        C851   1.400       .  A
C850        H859   1.083       .  S
C851        C852   1.402       .  A
C851        H860   1.083       .  S
C852        C858   1.411       .  A
C852        C853   1.415       .  A
C853        C855   1.399       .  A
C853        C854   1.405       .  A
C854        H861   1.084       .  S
C855        C856   1.394       .  A
C855        H862   1.083       .  S
C856        C857   1.408       .  A
C856        H863   1.083       .  S
C857        C858   1.408       .  A
C858        H864   1.084       .  S
C865        C866   1.404       .  A
C865        C870   1.404       .  A
C866        C867   1.399       .  A
C866        H875   1.083       .  S
C867        C868   1.403       .  A
C867        H876   1.083       .  S
C868        C874   1.406       .  A
C868        C869   1.414       .  A
C869        C871   1.400       .  A
C869        C870   1.403       .  A
C870        H877   1.084       .  S
C871        C872   1.396       .  A
C871        H878   1.084       .  S
C872        C873   1.408       .  A
C872        H879   1.083       .  S
C873        C874   1.409       .  A
C874        H880   1.084       .  S
C881        C882   1.405       .  A
C881        C886   1.400       .  A
C882        C883   1.395       .  A
C882        H891   1.084       .  S
C883        C884   1.400       .  A
C883        H892   1.083       .  S
C884        C890   1.404       .  A
C884        C885   1.416       .  A
C885        C887   1.398       .  A
C885        C886   1.404       .  A
C886        H893   1.084       .  S
C887        C888   1.395       .  A
C887        H894   1.083       .  S
C888        C889   1.409       .  A
C888        H895   1.083       .  S
C889        C890   1.404       .  A
C890        H896   1.084       .  S
C897        C898   1.406       .  A
C897        C902   1.406       .  A
C898        C899   1.400       .  A
C898        H907   1.083       .  S
C899        C900   1.403       .  A
C899        H908   1.083       .  S
C900        C906   1.408       .  A
C900        C901   1.414       .  A
C901        C903   1.400       .  A
C901        C902   1.406       .  A
C902        H909   1.084       .  S
C903        C904   1.396       .  A
C903        H910   1.083       .  S
C904        C905   1.408       .  A
C904        H911   1.083       .  S
C905        C906   1.408       .  A
C906        H912   1.084       .  S
C913        C914   1.407       .  A
C914        C915   1.401       .  A
C914        H923   1.083       .  S
C915        C916   1.404       .  A
C915        H924   1.084       .  S
C916        C922   1.406       .  A
C917        C919   1.398   1_554  A
C917        C918   1.396       .  A
C918        H925   1.084   1_554  S
C919        C920   1.391       .  A
C919        H926   1.084       .  S
C920        H927   1.083       .  S
C921        C922   1.409       .  A
C922        H928   1.084       .  S
C929        C930   1.407       .  A
C929        C934   1.403       .  A
C930        C931   1.399       .  A
C930        H939   1.083       .  S
C931        C932   1.401       .  A
C931        H940   1.084       .  S
C932        C938   1.409   1_655  A
C932        C933   1.417       .  A
C933        C935   1.399       .  A
C933        C934   1.405       .  A
C934        H941   1.085       .  S
C935        C936   1.394   1_655  A
C935        H942   1.084       .  S
C936        C937   1.407       .  A
C936        H943   1.083       .  S
C937        C938   1.404       .  A
C938        H944   1.084       .  S
C945        C946   1.411       .  A
C945        C950   1.403       .  A
C946        C947   1.394   1_545  A
C946        H955   1.083       .  S
C947        C948   1.398       .  A
C947        H956   1.084       .  S
C948        C954   1.404       .  A
C948        C949   1.416       .  A
C949        C951   1.397       .  A
C949        C950   1.404   1_565  A
C950        H957   1.084       .  S
C951        C952   1.393       .  A
C951        H958   1.084       .  S
C952        C953   1.410       .  A
C952        H959   1.083       .  S
C953        C954   1.404       .  A
C954        H960   1.084       .  S
C961        C962   1.407       .  A
C961        C966   1.406       .  A
C962        C963   1.394       .  A
C962        H971   1.083       .  S
C963        C964   1.399       .  A
C963        H972   1.083       .  S
C964        C970   1.400       .  A
C964        C965   1.414       .  A
C965        C967   1.402       .  A
C965        C966   1.404       .  A
C966        H973   1.084       .  S
C967        C968   1.397       .  A
C967        H974   1.083       .  S
C968        C969   1.407       .  A
C968        H975   1.083       .  S
C969        C970   1.406       .  A
C970        H976   1.084       .  S
C977        C978   1.406       .  A
C977        C982   1.402       .  A
C978        C979   1.400       .  A
C978        H987   1.083       .  S
C979        C980   1.404       .  A
C979        H988   1.083       .  S
C980        C986   1.406       .  A
C980        C981   1.414       .  A
C981        C983   1.398       .  A
C981        C982   1.399       .  A
C982        H989   1.084       .  S
C983        C984   1.392       .  A
C983        H990   1.084       .  S
C984        C985   1.408       .  A
C984        H991   1.083       .  S
C985        C986   1.409       .  A
C986        H992   1.084       .  S
C993        C994   1.411       .  A
C993        C998   1.407       .  A
C994        C995   1.403       .  A
C994       H1003   1.083       .  S
C995        C996   1.403       .  A
C995       H1004   1.083       .  S
C996       C1002   1.417       .  A
C996        C997   1.416       .  A
C997        C999   1.397       .  A
C997        C998   1.408       .  A
C998       H1005   1.084       .  S
C999       C1000   1.394       .  A
C999       H1006   1.083       .  S
C1000      C1001   1.410       .  A
C1000      H1007   1.083       .  S
C1001      C1002   1.409       .  A
C1002      H1008   1.083       .  S
C1009      C1010   1.408       .  A
C1009      C1014   1.405       .  A
C1010      C1011   1.391       .  A
C1010      H1019   1.083       .  S
C1011      C1012   1.398       .  A
C1011      H1020   1.084       .  S
C1012      C1018   1.397       .  A
C1012      C1013   1.414       .  A
C1013      C1015   1.401       .  A
C1013      C1014   1.401       .  A
C1014      H1021   1.084       .  S
C1015      C1016   1.397       .  A
C1015      H1022   1.084       .  S
C1016      C1017   1.407       .  A
C1016      H1023   1.083       .  S
C1017      C1018   1.403       .  A
C1018      H1024   1.084       .  S
C1025      C1030   1.413   1_554  A
C1026      C1027   1.404       .  A
C1026      H1035   1.082       .  S
C1027      C1028   1.407       .  A
C1027      H1036   1.084       .  S
C1028      C1034   1.407       .  A
C1029      C1031   1.403       .  A
C1029      C1030   1.401       .  A
C1030      H1037   1.084       .  S
C1031      C1032   1.397       .  A
C1031      H1038   1.084       .  S
C1032      C1033   1.405       .  A
C1032      H1039   1.083       .  S
C1034      H1040   1.084       .  S
