geometry optimzed in LAMMPS
_audit_creation_date              2020-11-30 
_audit_creation_method            'lammps2cif' 
_symmetry_space_group_name_H-M    'P1' 
_symmetry_Int_Tables_number       1 
_symmetry_cell_setting            triclinic 
loop_ 
_symmetry_equiv_pos_as_xyz 
  x,y,z 
_cell_length_a                    59.538764221739676 
_cell_length_b                    59.40916695261474 
_cell_length_c                    59.466991250272244 
_cell_angle_alpha                 90.06695088212865 
_cell_angle_beta                  90.10298177309409 
_cell_angle_gamma                 90.01514839051602 
loop_ 
_atom_site_label 
_atom_site_type_symbol 
_atom_site_fract_x 
_atom_site_fract_y 
_atom_site_fract_z 
_atom_site_charge 
C1          C  0.72169488  0.80735798  0.90719651     0.05890
C2          C  0.70485434  0.80727804  0.92357537    -0.10260
C3          C  0.68846155  0.82413478  0.92356956     0.03390
C4          C  0.68892164  0.84111664  0.90740743    -0.08790
C5          C  0.70570350  0.84125200  0.89105838     0.05880
C6          C  0.72214880  0.82436804  0.89085265    -0.08210
H7          H  0.70453696  0.79420694  0.93628751     0.11480
H8          H  0.67626807  0.85425314  0.90759557     0.09010
H9          H  0.73517263  0.82448488  0.87814223     0.08850
C10         C  0.78855246  0.72511871  0.91970014     0.05890
C11         C  0.77131140  0.74115977  0.92141199    -0.10260
C12         C  0.76997852  0.75880124  0.90580784     0.03390
C13         C  0.78579410  0.76045964  0.88859100    -0.08790
C14         C  0.80300613  0.74461634  0.88687452     0.05880
C15         C  0.80446386  0.72692076  0.90241602    -0.08210
H16         H  0.75906706  0.73996503  0.93482615     0.11480
H17         H  0.78474259  0.77412877  0.87655243     0.09010
H18         H  0.81791644  0.71469818  0.90111083     0.08850
C19         C  0.88331817  0.73447348  0.82091282     0.05890
C20         C  0.86652201  0.73386124  0.83720069    -0.10260
C21         C  0.84956534  0.75006618  0.83714778     0.03390
C22         C  0.84941482  0.76702378  0.82072165    -0.08790
C23         C  0.86642377  0.76761082  0.80438707     0.05880
C24         C  0.88337467  0.75132746  0.80454170    -0.08210
H25         H  0.86669590  0.72082275  0.84996208     0.11480
H26         H  0.83625815  0.77962922  0.82067976     0.09010
H27         H  0.89658720  0.75180361  0.79202337     0.08850
C28         C  0.88177316  0.83584484  0.72377747     0.05890
C29         C  0.88285622  0.81831408  0.73959972    -0.10260
C30         C  0.86665474  0.81685409  0.75667289     0.03390
C31         C  0.84951735  0.83282568  0.75796088    -0.08790
C32         C  0.84845040  0.85029434  0.74233769     0.05880
C33         C  0.86454746  0.85187557  0.72523603    -0.08210
H34         H  0.89621110  0.80595327  0.73866704     0.11480
H35         H  0.83702102  0.83168656  0.77116267     0.09010
H36         H  0.86370418  0.86552804  0.71317912     0.08850
C37         C  0.68442635  0.92627119  0.83241620     0.05890
C38         C  0.68580389  0.90852945  0.84786897    -0.10260
C39         C  0.70298042  0.89252634  0.84596546     0.03390
C40         C  0.71878194  0.89419803  0.82875888    -0.08790
C41         C  0.71757580  0.91187558  0.81336604     0.05880
C42         C  0.70042119  0.92799418  0.81514895    -0.08210
H43         H  0.67359312  0.90718568  0.86130362     0.11480
H44         H  0.73202383  0.88173898  0.82735132     0.09010
H45         H  0.69953152  0.94174842  0.80321691     0.08850
C46         C  0.78149054  0.93017989  0.73131940     0.05890
C47         C  0.76514912  0.92991869  0.74814651    -0.10260
C48         C  0.76538009  0.91296813  0.76441998     0.03390
C49         C  0.78204783  0.89626548  0.76385321    -0.08790
C50         C  0.79843813  0.89671748  0.74692885     0.05880
C51         C  0.79813263  0.91367943  0.73071244    -0.08210
H52         H  0.75233867  0.94288725  0.74860287     0.11480
H53         H  0.78228322  0.88309563  0.77645324     0.09010
H54         H  0.81085495  0.91407791  0.71768546     0.08850
N55         N  0.79349317  0.49671803  0.05989289    -0.24530
N56         N  0.79288797  0.49598235  0.03763633    -0.32390
C57         C  0.79354265  0.51701376  0.02938327     0.03810
C58         C  0.79458876  0.53190192  0.04715564     0.09840
C59         C  0.79454289  0.51850010  0.06628779    -0.03260
H60         H  0.79308201  0.52111123  0.01167522     0.10500
H61         H  0.79507594  0.52416390  0.08357472     0.11700
Cu62       Cu  0.79064484  0.46712275  0.01844628     0.44170
Cu63       Cu  0.79250864  0.46798057  0.08062303     0.41990
Cu64       Cu  0.78812521  0.41633281  0.04922674     0.43880
N65         N  0.78759025  0.43610332  0.00323419    -0.31920
N66         N  0.78664734  0.41728861  0.01497705    -0.26170
C67         C  0.78449479  0.39973976  0.00098650    -0.02270
C68         C  0.78405724  0.40803722  0.97945514     0.09950
C69         C  0.78605982  0.43108411  0.98123962     0.03740
H70         H  0.78332276  0.38232974  0.00615918     0.11390
H71         H  0.78635205  0.44324285  0.96771526     0.10470
N72         N  0.78931202  0.41733823  0.08350797    -0.33360
N73         N  0.79088669  0.43594267  0.09564105    -0.25550
C74         C  0.79098921  0.43008783  0.11759297    -0.00780
C75         C  0.78939579  0.40682202  0.11887495     0.07830
C76         C  0.78837384  0.39935465  0.09705619     0.05920
H77         H  0.79203665  0.44182006  0.13148634     0.11020
H78         H  0.78693854  0.38211485  0.09135596     0.09860
N79         N  0.79476132  0.65412160  0.08784600    -0.24530
N80         N  0.79461751  0.67248018  0.07534742    -0.32390
C81         C  0.79384623  0.69069433  0.08864665     0.03810
C82         C  0.79349230  0.68342104  0.11056951     0.09840
C83         C  0.79408024  0.66018347  0.10966607    -0.03260
H84         H  0.79338821  0.70790323  0.08273453     0.10500
H85         H  0.79385683  0.64859753  0.12368675     0.11700
Cu86       Cu  0.79488777  0.67209335  0.04093153     0.44170
Cu87       Cu  0.79541462  0.62225470  0.07363093     0.41990
Cu88       Cu  0.79465892  0.61980509  0.01103313     0.43880
N89         N  0.79420903  0.67027544  0.00655774    -0.31920
N90         N  0.79402822  0.65129233  0.99493608    -0.26170
C91         C  0.79316394  0.65648523  0.97282411    -0.02270
C92         C  0.79281239  0.67976419  0.97086901     0.09950
C93         C  0.79347944  0.68788438  0.99249436     0.03740
H94         H  0.79267461  0.64430888  0.95928933     0.11390
H95         H  0.79326608  0.70533469  0.99771391     0.10470
N96         N  0.79514258  0.59172513  0.03257285    -0.33360
N97         N  0.79546405  0.59282348  0.05483539    -0.25550
C98         C  0.79548002  0.57184099  0.06334207    -0.00780
C99         C  0.79512930  0.55670612  0.04572077     0.07830
C100        C  0.79493554  0.56986806  0.02645585     0.05920
H101        H  0.79555518  0.56794300  0.08109959     0.11020
H102        H  0.79452325  0.56400191  0.00923679     0.09860
C103        C  0.78112985  0.17377895  0.73167923     0.05890
C104        C  0.76470191  0.17243666  0.74849117    -0.10260
C105        C  0.76425618  0.18839655  0.76585926     0.03390
C106        C  0.78026176  0.20566165  0.76645418    -0.08790
C107        C  0.79672599  0.20695106  0.74972884     0.05880
C108        C  0.79718213  0.19099839  0.73236356    -0.08210
H109        H  0.75233933  0.15903842  0.74806659     0.11480
H110        H  0.77991335  0.21803025  0.77987445     0.09010
H111        H  0.80998100  0.19197207  0.71945521     0.08850
C112        C  0.68437040  0.16852421  0.83271207     0.05890
C113        C  0.70066846  0.16870425  0.81574199    -0.10260
C114        C  0.71656323  0.18609569  0.81499010     0.03390
C115        C  0.71613859  0.20319117  0.83122620    -0.08790
C116        C  0.69984787  0.20281622  0.84816433     0.05880
C117        C  0.68401706  0.18551959  0.84891978    -0.08210
H118        H  0.70098785  0.15541196  0.80323537     0.11480
H119        H  0.72839910  0.21667700  0.83069357     0.09010
H120        H  0.67146660  0.18526840  0.86211464     0.08850
C121        C  0.68052797  0.26806864  0.92912325     0.05890
C122        C  0.68099447  0.25118057  0.91269663    -0.10260
C123        C  0.69754290  0.25151939  0.89603203     0.03390
C124        C  0.71362239  0.26859165  0.89570399    -0.08790
C125        C  0.71329709  0.28542536  0.91208055     0.05880
C126        C  0.69676804  0.28522182  0.92888592    -0.08210
H127        H  0.66859618  0.23780923  0.91291820     0.11480
H128        H  0.72641507  0.26874262  0.88274160     0.09010
H129        H  0.69658301  0.29823737  0.94167644     0.08850
C130        C  0.76191273  0.33358615  0.90925572     0.05890
C131        C  0.76272766  0.34975944  0.92630241    -0.10260
C132        C  0.77937110  0.36630792  0.92600915     0.03390
C133        C  0.79527800  0.36676773  0.90883929    -0.08790
C134        C  0.79455818  0.35064569  0.89175878     0.05880
C135        C  0.77784795  0.33396263  0.89187368    -0.08210
H136        H  0.75053116  0.34939731  0.93982068     0.11480
H137        H  0.80827617  0.37956810  0.90884769     0.09010
H138        H  0.77730439  0.32138960  0.87865990     0.08850
C139        C  0.87794103  0.27113450  0.73180857     0.05890
C140        C  0.87844108  0.28869010  0.74752034    -0.10260
C141        C  0.86194701  0.29002179  0.76419703     0.03390
C142        C  0.84492218  0.27373301  0.76519142    -0.08790
C143        C  0.84449563  0.25612176  0.74948179     0.05880
C144        C  0.86101884  0.25483534  0.73281433    -0.08210
H145        H  0.89166726  0.30122183  0.74682012     0.11480
H146        H  0.83214855  0.27472043  0.77811845     0.09010
H147        H  0.86075360  0.24115834  0.72071893     0.08850
C148        C  0.87663571  0.37362968  0.82939427     0.05890
C149        C  0.85945869  0.37233686  0.84546731    -0.10260
C150        C  0.84360019  0.35489888  0.84434525     0.03390
C151        C  0.84488768  0.33879191  0.82729196    -0.08790
C152        C  0.86199204  0.33992920  0.81129937     0.05880
C153        C  0.87791554  0.35732521  0.81230786    -0.08210
H154        H  0.85849176  0.38475226  0.85880765     0.11480
H155        H  0.83262005  0.32530811  0.82651887     0.09010
H156        H  0.89124977  0.35811501  0.79994952     0.08850
N157        N  0.39809476  0.83419355  0.08729363    -0.24530
N158        N  0.37951638  0.83362744  0.07513602    -0.32390
C159        C  0.36158479  0.83292961  0.08873944     0.03810
C160        C  0.36918182  0.83306740  0.11058604     0.09840
C161        C  0.39240213  0.83387267  0.10924742    -0.03260
H162        H  0.34431817  0.83234257  0.08308400     0.10500
H163        H  0.40421315  0.83416826  0.12309174     0.11700
Cu164      Cu  0.37921447  0.83374759  0.04071674     0.44170
Cu165      Cu  0.42969958  0.83523024  0.07214117     0.41990
Cu166      Cu  0.43049917  0.83528024  0.00938008     0.43880
N167        N  0.38016682  0.83367938  0.00632825    -0.31920
N168        N  0.39877005  0.83421875  0.99424391    -0.26170
C169        C  0.39305912  0.83368669  0.97226522    -0.02270
C170        C  0.36984066  0.83276112  0.97089772     0.09950
C171        C  0.36225710  0.83280101  0.99267938     0.03740
H172        H  0.40484407  0.83383052  0.95845031     0.11390
H173        H  0.34500254  0.83210708  0.99827720     0.10470
N174        N  0.45901968  0.83579211  0.03004509    -0.33360
N175        N  0.45865164  0.83578911  0.05233727    -0.25550
C176        C  0.47992216  0.83589770  0.06008050    -0.00780
C177        C  0.49440358  0.83595001  0.04192053     0.07830
C178        C  0.48057691  0.83589373  0.02315396     0.05920
H179        H  0.48448326  0.83577795  0.07769551     0.11020
H180        H  0.48578017  0.83578087  0.00573881     0.09860
N181        N  0.61477588  0.83216046  0.09052070    -0.24530
N182        N  0.63344535  0.83152194  0.07856315    -0.32390
C183        C  0.65128235  0.83029764  0.09226595     0.03810
C184        C  0.64357623  0.83016058  0.11399479     0.09840
C185        C  0.62036964  0.83135911  0.11251592    -0.03260
H186        H  0.66854877  0.82940539  0.08673726     0.10500
H187        H  0.60851277  0.83149221  0.12627358     0.11700
Cu188      Cu  0.63440488  0.83169439  0.04433094     0.44170
Cu189      Cu  0.58317005  0.83369185  0.07505788     0.41990
Cu190      Cu  0.58380064  0.83314284  0.01252850     0.43880
N191        N  0.63389244  0.83047636  0.01012041    -0.31920
N192        N  0.61536342  0.83093397  0.99788752    -0.26170
C193        C  0.62104282  0.82936546  0.97602971    -0.02270
C194        C  0.64417041  0.82782608  0.97491832     0.09950
C195        C  0.65180462  0.82860601  0.99667563     0.03740
H196        H  0.60928359  0.82921820  0.96214218     0.11390
H197        H  0.66903469  0.82773336  0.00239367     0.10470
N198        N  0.55493514  0.83459485  0.03213310    -0.33360
N199        N  0.55458785  0.83475426  0.05441652    -0.25550
C200        C  0.53303572  0.83541458  0.06127953    -0.00780
C201        C  0.51921823  0.83566912  0.04249949     0.07830
C202        C  0.53369418  0.83515325  0.02435042     0.05920
H203        H  0.52781760  0.83553666  0.07869420     0.11020
H204        H  0.52915515  0.83500591  0.00672980     0.09860
C205        C  0.14005554  0.77242375  0.80612330     0.05890
C206        C  0.12405125  0.75509603  0.80618378    -0.10260
C207        C  0.12511258  0.73810189  0.82249793     0.03390
C208        C  0.14202251  0.73852785  0.83882606    -0.08790
C209        C  0.15802441  0.75576552  0.83885975     0.05880
C210        C  0.15708942  0.77273829  0.82249010    -0.08210
H211        H  0.11085358  0.75482888  0.79360266     0.11480
H212        H  0.14273110  0.72543871  0.85151010     0.09010
H213        H  0.16952103  0.78607051  0.82247990     0.08850
C214        C  0.12333432  0.84045368  0.72542867     0.05890
C215        C  0.14035375  0.85668365  0.72654084    -0.10260
C216        C  0.15662217  0.85556196  0.74352533     0.03390
C217        C  0.15591457  0.83827586  0.75945440    -0.08790
C218        C  0.13890954  0.82203638  0.75849642     0.05880
C219        C  0.12256470  0.82312706  0.74147418    -0.08210
H220        H  0.14092748  0.87014347  0.71425418     0.11480
H221        H  0.16857383  0.83746141  0.77256195     0.09010
H222        H  0.10934469  0.81059808  0.74072545     0.08850
C223        C  0.22107259  0.73282007  0.92045223     0.05890
C224        C  0.20476398  0.73481943  0.90351275    -0.10260
C225        C  0.20601158  0.75242197  0.88785157     0.03390
C226        C  0.22352724  0.76807640  0.88912872    -0.08790
C227        C  0.23982227  0.76627544  0.90603094     0.05880
C228        C  0.23858580  0.74866109  0.92172977    -0.08210
H229        H  0.19115063  0.72273300  0.90252263     0.11480
H230        H  0.22447798  0.78164129  0.87698014     0.09010
H231        H  0.25116518  0.74729323  0.93485575     0.08850
C232        C  0.28942447  0.81391437  0.90586872     0.05890
C233        C  0.30719702  0.81380678  0.92137909    -0.10260
C234        C  0.32381004  0.83052768  0.92044668     0.03390
C235        C  0.32257868  0.84740073  0.90412254    -0.08790
C236        C  0.30486932  0.84755660  0.88863636     0.05880
C237        C  0.28829268  0.83082159  0.88946113    -0.08210
H238        H  0.30805286  0.80083021  0.93415757     0.11480
H239        H  0.33531719  0.86043769  0.90353421     0.09010
H240        H  0.27457504  0.83098681  0.87745079     0.08850
C241        C  0.22236168  0.93650952  0.72948860     0.05890
C242        C  0.20571185  0.91993613  0.72936595    -0.10260
C243        C  0.20592916  0.90299548  0.74564964     0.03390
C244        C  0.22279025  0.90262811  0.76209790    -0.08790
C245        C  0.23943168  0.91930743  0.76222536     0.05880
C246        C  0.23920840  0.93627196  0.74592387    -0.08210
H247        H  0.19260239  0.92025498  0.71668473     0.11480
H248        H  0.22294100  0.88947753  0.77472557     0.09010
H249        H  0.25202835  0.94923878  0.74606005     0.08850
C250        C  0.32093290  0.93290125  0.82907463     0.05890
C251        C  0.32063263  0.91505001  0.84441012    -0.10260
C252        C  0.30404646  0.89841768  0.84277984     0.03390
C253        C  0.28775202  0.89962379  0.82585605    -0.08790
C254        C  0.28799033  0.91749718  0.81055661     0.05880
C255        C  0.30456594  0.93417257  0.81215168    -0.08210
H256        H  0.33320125  0.91414249  0.85759655     0.11480
H257        H  0.27490708  0.88673330  0.82462936     0.09010
H258        H  0.30468839  0.94806989  0.80035147     0.08850
N259        N  0.37275437  0.26487671  0.02118122    -0.24530
N260        N  0.39100952  0.26388003  0.00862201    -0.32390
C261        C  0.38473629  0.26492319  0.98681899     0.03810
C262        C  0.36152472  0.26667589  0.98605892     0.09840
C263        C  0.35451577  0.26658246  0.00804416    -0.03260
H264        H  0.39614346  0.26448606  0.97268986     0.10500
H265        H  0.33744776  0.26770448  0.01412106     0.11700
Cu266      Cu  0.42306230  0.26139003  0.02304791     0.44170
Cu267      Cu  0.37301488  0.26415649  0.05547893     0.41990
Cu268      Cu  0.42466376  0.26049164  0.08562671     0.43880
N269        N  0.45235774  0.25946707  0.04261772    -0.31920
N270        N  0.45282277  0.25910608  0.06490143    -0.26170
C271        C  0.47433718  0.25813289  0.07186216    -0.02270
C272        C  0.48814049  0.25789268  0.05317492     0.09950
C273        C  0.47363738  0.25873902  0.03494007     0.03740
H274        H  0.47952768  0.25784208  0.08929893     0.11390
H275        H  0.47820875  0.25899732  0.01734409     0.10470
N276        N  0.39356888  0.26290365  0.10136834    -0.33360
N277        N  0.37469609  0.26419718  0.08972790    -0.25550
C278        C  0.35724193  0.26603256  0.10377374    -0.00780
C279        C  0.36549872  0.26592083  0.12531894     0.07830
C280        C  0.38855852  0.26389171  0.12344295     0.05920
H281        H  0.33988370  0.26754105  0.09860474     0.11020
H282        H  0.40072257  0.26337166  0.13696459     0.09860
N283        N  0.62693461  0.25992898  0.01672160    -0.24530
N284        N  0.60813557  0.26042852  0.00490436    -0.32390
C285        C  0.61347286  0.26249194  0.98295309     0.03810
C286        C  0.63667682  0.26333833  0.98132147     0.09840
C287        C  0.64463356  0.26165242  0.00293909    -0.03260
H288        H  0.60144217  0.26349227  0.96933703     0.10500
H289        H  0.66198585  0.26187995  0.00834772     0.11700
Cu290      Cu  0.57676856  0.25882640  0.02057010     0.44170
Cu291      Cu  0.62807556  0.25784515  0.05096725     0.41990
Cu292      Cu  0.57782514  0.25702744  0.08335500     0.43880
N293        N  0.54838121  0.25771116  0.04123136    -0.31920
N294        N  0.54873135  0.25710207  0.06351839    -0.26170
C295        C  0.52741934  0.25689375  0.07111545    -0.02270
C296        C  0.51297135  0.25740445  0.05284001     0.09950
C297        C  0.52685326  0.25789091  0.03420329     0.03740
H298        H  0.52280343  0.25658412  0.08869597     0.11390
H299        H  0.52170651  0.25854554  0.01676329     0.10470
N300        N  0.60986179  0.25760459  0.09782020    -0.33360
N301        N  0.62816208  0.25776471  0.08528838    -0.25550
C302        C  0.64641806  0.25867002  0.09846044    -0.00780
C303        C  0.63936640  0.25910857  0.12041295     0.07830
C304        C  0.61611406  0.25840413  0.11963658     0.05920
H305        H  0.66352505  0.25928687  0.09241960     0.11020
H306        H  0.60466918  0.25872767  0.13373492     0.09860
N307        N  0.98936746  0.50712224  0.83620377    -0.24530
N308        N  0.01160662  0.50623025  0.83690408    -0.32390
C309        C  0.01990842  0.52731646  0.83671429     0.03810
C310        C  0.00217605  0.54228583  0.83586171     0.09840
C311        C  0.98306677  0.52891427  0.83558026    -0.03260
H312        H  0.03760122  0.53140310  0.83703463     0.10500
H313        H  0.96583245  0.53459020  0.83479507     0.11700
Cu314      Cu  0.03062302  0.47686007  0.83773514     0.44170
Cu315      Cu  0.96806247  0.47886306  0.83567393     0.41990
Cu316      Cu  0.99819265  0.42673669  0.83695025     0.43880
N317        N  0.04504369  0.44497757  0.83797026    -0.31920
N318        N  0.03263314  0.42654493  0.83770728    -0.26170
C319        C  0.04600983  0.40838310  0.83760486    -0.02270
C320        C  0.06791349  0.41572254  0.83781877     0.09950
C321        C  0.06688405  0.43898884  0.83804285     0.03740
H322        H  0.04016721  0.39114024  0.83720274     0.11390
H323        H  0.08085178  0.45064048  0.83806779     0.10470
N324        N  0.96381119  0.42835294  0.83548542    -0.33360
N325        N  0.95214405  0.44727858  0.83494858    -0.25550
C326        C  0.93009081  0.44198492  0.83371173    -0.00780
C327        C  0.92819626  0.41869704  0.83348473     0.07830
C328        C  0.94981350  0.41067657  0.83462180     0.05920
H329        H  0.91655376  0.45410025  0.83291814     0.11020
H330        H  0.95506934  0.39324618  0.83468187     0.09860
N331        N  0.01589687  0.60236488  0.83320459    -0.24530
N332        N  0.99364833  0.60301289  0.83309254    -0.32390
C333        C  0.98553486  0.58191527  0.83415977     0.03810
C334        C  0.00338773  0.56712085  0.83499428     0.09840
C335        C  0.02240567  0.58063971  0.83438286    -0.03260
H336        H  0.96786868  0.57769836  0.83415922     0.10500
H337        H  0.03970090  0.57509198  0.83457823     0.11700
Cu338      Cu  0.97425455  0.63188643  0.83104963     0.44170
Cu339      Cu  0.03668033  0.63097919  0.83127103     0.41990
Cu340      Cu  0.00534436  0.68231969  0.82741285     0.43880
N341        N  0.95920171  0.66311930  0.82810755    -0.31920
N342        N  0.97119075  0.68175845  0.82678018    -0.26170
C343        C  0.95750942  0.69950692  0.82466873    -0.02270
C344        C  0.93586725  0.69158595  0.82464981     0.09950
C345        C  0.93728577  0.66850459  0.82688220     0.03740
H346        H  0.96297842  0.71680631  0.82317285     0.11390
H347        H  0.92356723  0.65657568  0.82747206     0.10470
N348        N  0.03950530  0.68143601  0.82720195    -0.33360
N349        N  0.05169917  0.66289616  0.82856343    -0.25550
C350        C  0.07359278  0.66879839  0.82764021    -0.00780
C351        C  0.07472228  0.69202882  0.82557349     0.07830
C352        C  0.05292010  0.69943287  0.82538066     0.05920
H353        H  0.08752677  0.65713616  0.82834358     0.11020
H354        H  0.04713329  0.71662988  0.82395075     0.09860
N355        N  0.39474492  0.10098417  0.84289447    -0.24530
N356        N  0.37615507  0.08885330  0.84177621    -0.32390
C357        C  0.35823798  0.10241350  0.84021523     0.03810
C358        C  0.36569585  0.12426577  0.84032001     0.09840
C359        C  0.38893447  0.12297846  0.84205641    -0.03260
H360        H  0.34105003  0.09668953  0.83879453     0.10500
H361        H  0.40067041  0.13687695  0.84241528     0.11700
Cu362      Cu  0.37512252  0.05449418  0.84133274     0.44170
Cu363      Cu  0.42660436  0.08559295  0.84480626     0.41990
Cu364      Cu  0.42520368  0.02277202  0.84297131     0.43880
N365        N  0.37521487  0.02016739  0.83933462    -0.31920
N366        N  0.39370094  0.00790956  0.83986917    -0.26170
C367        C  0.38799158  0.98604595  0.83778692    -0.02270
C368        C  0.36485333  0.98489479  0.83585757     0.09950
C369        C  0.35729138  0.00671831  0.83690278     0.03740
H370        H  0.39974099  0.97216250  0.83757188     0.11390
H371        H  0.34009083  0.01246825  0.83585004     0.10470
N372        N  0.45429093  0.04212003  0.84527040    -0.33360
N373        N  0.45506482  0.06442235  0.84586944    -0.25550
C374        C  0.47681078  0.07081909  0.84682330    -0.00780
C375        C  0.49025826  0.05171255  0.84680660     0.07830
C376        C  0.47535792  0.03390278  0.84584034     0.05920
H377        H  0.48243284  0.08813373  0.84724942     0.11020
H378        H  0.47950176  0.01618001  0.84529781     0.09860
N379        N  0.55026804  0.03766850  0.84616759    -0.24530
N380        N  0.55112143  0.05996748  0.84649685    -0.32390
C381        C  0.53007391  0.06824624  0.84703258     0.03810
C382        C  0.51511106  0.05045963  0.84700795     0.09840
C383        C  0.52850127  0.03132334  0.84648048    -0.03260
H384        H  0.52599111  0.08599151  0.84713097     0.10500
H385        H  0.52282736  0.01402325  0.84609367     0.11700
Cu386      Cu  0.58036580  0.07909966  0.84544637     0.44170
Cu387      Cu  0.57865352  0.01644985  0.84471669     0.41990
Cu388      Cu  0.63045780  0.04688068  0.84441182     0.43880
N389        N  0.61205911  0.09355876  0.84325150    -0.31920
N390        N  0.63046736  0.08116832  0.84304123    -0.26170
C391        C  0.64849621  0.09444866  0.84071682    -0.02270
C392        C  0.64106752  0.11627042  0.83938282     0.09950
C393        C  0.61792938  0.11534485  0.84106256     0.03740
H394        H  0.66564683  0.08855780  0.83967385     0.11390
H395        H  0.60627547  0.12929476  0.84038444     0.10470
N396        N  0.62910145  0.01260445  0.84296969    -0.33360
N397        N  0.61032843  0.00072175  0.84284535    -0.25550
C398        C  0.61584593  0.97873184  0.84086383    -0.00780
C399        C  0.63909265  0.97718095  0.83970375     0.07830
C400        C  0.64686659  0.99888651  0.84108598     0.05920
H401        H  0.60390869  0.96502456  0.84004574     0.11020
H402        H  0.66415649  0.00441849  0.84042786     0.09860
N403        N  0.21040712  0.50427828  0.06516502    -0.24530
N404        N  0.20944315  0.50255621  0.04295095    -0.32390
C405        C  0.20893329  0.52323626  0.03376619     0.03810
C406        C  0.20958990  0.53899193  0.05079811     0.09840
C407        C  0.21048453  0.52640266  0.07052402    -0.03260
H408        H  0.20831115  0.52650978  0.01589122     0.10500
H409        H  0.21136388  0.53287020  0.08751164     0.11700
Cu410      Cu  0.20933639  0.47281814  0.02477978     0.44170
Cu411      Cu  0.21213269  0.47627160  0.08731267     0.41990
Cu412      Cu  0.21155887  0.42355891  0.05741556     0.43880
N413        N  0.21020520  0.44105321  0.01054064    -0.31920
N414        N  0.21097291  0.42275788  0.02308318    -0.26170
C415        C  0.21195241  0.40451765  0.00984250    -0.02270
C416        C  0.21177892  0.41175228  0.98790623     0.09950
C417        C  0.21066542  0.43496096  0.98873879     0.03740
H418        H  0.21299522  0.38734875  0.01579511     0.11390
H419        H  0.21047144  0.44651205  0.97468776     0.10470
N420        N  0.21377289  0.42552048  0.09164364    -0.33360
N421        N  0.21415872  0.44444217  0.10338580    -0.25550
C422        C  0.21630474  0.43896000  0.12539459    -0.00780
C423        C  0.21730908  0.41560910  0.12708146     0.07830
C424        C  0.21563141  0.40777929  0.10543075     0.05920
H425        H  0.21722644  0.45097739  0.13904720     0.11020
H426        H  0.21593123  0.39040519  0.09997495     0.09860
N427        N  0.21077330  0.59848850  0.03377755    -0.24530
N428        N  0.21087457  0.60024317  0.05600405    -0.32390
C429        C  0.21031490  0.57958918  0.06524428     0.03810
C430        C  0.20982209  0.56381365  0.04822434     0.09840
C431        C  0.21009604  0.57636804  0.02845932    -0.03260
H432        H  0.21043910  0.57634479  0.08313395     0.10500
H433        H  0.21003593  0.56987293  0.01146015     0.11700
Cu434      Cu  0.21227853  0.63000527  0.07401237     0.44170
Cu435      Cu  0.21208727  0.62645262  0.01155650     0.41990
Cu436      Cu  0.21447461  0.67927448  0.04115072     0.43880
N437        N  0.21455021  0.66174579  0.08804291    -0.31920
N438        N  0.21533508  0.68002041  0.07547011    -0.26170
C439        C  0.21714838  0.69822612  0.08867068    -0.02270
C440        C  0.21751292  0.69096496  0.11059145     0.09950
C441        C  0.21583946  0.66780632  0.10981110     0.03740
H442        H  0.21826305  0.71538169  0.08269965     0.11390
H443        H  0.21571478  0.65626526  0.12386916     0.10470
N444        N  0.21472777  0.67713843  0.00687037    -0.33360
N445        N  0.21397793  0.65815880  0.99523923    -0.25550
C446        C  0.21492262  0.66348331  0.97311576    -0.00780
C447        C  0.21632128  0.68679377  0.97123033     0.07830
C448        C  0.21614588  0.69476792  0.99289270     0.05920
H449        H  0.21475779  0.65138059  0.95950741     0.11020
H450        H  0.21715934  0.71215828  0.99821441     0.09860
C451        C  0.22186879  0.17739268  0.73240827     0.05890
C452        C  0.23847309  0.17581267  0.74919496    -0.10260
C453        C  0.23851281  0.19093827  0.76740471     0.03390
C454        C  0.22185818  0.20757613  0.76879499    -0.08790
C455        C  0.20523702  0.20910309  0.75214452     0.05880
C456        C  0.20525418  0.19400831  0.73402001    -0.08210
H457        H  0.25127618  0.16289429  0.74809577     0.11480
H458        H  0.22183392  0.21929906  0.78278226     0.09010
H459        H  0.19233989  0.19518189  0.72119516     0.08850
C460        C  0.31948613  0.17468254  0.83556752     0.05890
C461        C  0.30349957  0.17393744  0.81815850    -0.10260
C462        C  0.28603309  0.18982889  0.81741673     0.03390
C463        C  0.28459722  0.20639565  0.83419120    -0.08790
C464        C  0.30049355  0.20705364  0.85160427     0.05880
C465        C  0.31786785  0.19120448  0.85227451    -0.08210
H466        H  0.30464711  0.16107210  0.80526879     0.11480
H467        H  0.27118594  0.21872322  0.83369014     0.09010
H468        H  0.33010990  0.19172368  0.86578934     0.08850
C469        C  0.12200251  0.27176501  0.73640945     0.05890
C470        C  0.13932020  0.25582482  0.73683369    -0.10260
C471        C  0.15573542  0.25666762  0.75372745     0.03390
C472        C  0.15479920  0.27348118  0.77025287    -0.08790
C473        C  0.13743131  0.28941170  0.76989502     0.05880
C474        C  0.12103142  0.28852798  0.75298584    -0.08210
H475        H  0.14000499  0.24278603  0.72407506     0.11480
H476        H  0.16749890  0.27415305  0.78332277     0.09010
H477        H  0.10756424  0.30080437  0.75274419     0.08850
C478        C  0.11960499  0.37093840  0.83617623     0.05890
C479        C  0.11945419  0.35467914  0.81905319    -0.10260
C480        C  0.13585828  0.33776051  0.81871499     0.03390
C481        C  0.15235397  0.33709405  0.83548891    -0.08790
C482        C  0.15246695  0.35327056  0.85260148     0.05880
C483        C  0.13609777  0.37019194  0.85297755    -0.08210
H484        H  0.10662117  0.35515681  0.80610672     0.11480
H485        H  0.16504472  0.32400755  0.83524594     0.09010
H486        H  0.13616229  0.38267030  0.86629913     0.08850
C487        C  0.31596816  0.27008281  0.93494683     0.05890
C488        C  0.31574642  0.25394841  0.91775955    -0.10260
C489        C  0.29892187  0.25444291  0.90127572     0.03390
C490        C  0.28226724  0.27104356  0.90198314    -0.08790
C491        C  0.28237315  0.28715626  0.91918299     0.05880
C492        C  0.29921369  0.28667492  0.93570611    -0.08210
H493        H  0.32862444  0.24105865  0.91720560     0.11480
H494        H  0.26927854  0.27142950  0.88918484     0.09010
H495        H  0.29928696  0.29912627  0.94904781     0.08850
C496        C  0.21547946  0.36780544  0.93577398     0.05890
C497        C  0.19939108  0.36782352  0.91864109    -0.10260
C498        C  0.20019563  0.35149042  0.90172385     0.03390
C499        C  0.21710058  0.33507607  0.90194423    -0.08790
C500        C  0.23320095  0.33503570  0.91917966     0.05880
C501        C  0.23236309  0.35140895  0.93610929    -0.08210
H502        H  0.18627145  0.38048151  0.91849274     0.11480
H503        H  0.21771344  0.32242102  0.88880774     0.09010
H504        H  0.24476181  0.35137612  0.94948585     0.08850
N505        N  0.21474680  0.03666764  0.50035506    -0.24530
N506        N  0.21416807  0.05892982  0.49899390    -0.32390
C507        C  0.21363377  0.06790869  0.51974467     0.03810
C508        C  0.21387570  0.05069511  0.53523094     0.09840
C509        C  0.21455605  0.03106168  0.52239033    -0.03260
H510        H  0.21326744  0.08577776  0.52324084     0.10500
H511        H  0.21507275  0.01397143  0.52863583     0.11700
Cu512      Cu  0.21459494  0.07748678  0.46976305     0.44170
Cu513      Cu  0.21622847  0.01495374  0.47186713     0.41990
Cu514      Cu  0.21624919  0.04596784  0.41986991     0.43880
N515        N  0.21593116  0.09235202  0.43856861    -0.31920
N516        N  0.21647934  0.08025187  0.41996422    -0.26170
C517        C  0.21783848  0.09392668  0.40213876    -0.02270
C518        C  0.21813603  0.11564421  0.41004773     0.09950
C519        C  0.21691658  0.11428531  0.43315206     0.03740
H520        H  0.21879637  0.08841248  0.38482541     0.11390
H521        H  0.21698340  0.12804463  0.44508782     0.10470
N522        N  0.21782933  0.01172616  0.42101690    -0.33360
N523        N  0.21800485  0.99952766  0.43961099    -0.25550
C524        C  0.21975367  0.97760748  0.43351885    -0.00780
C525        C  0.22073032  0.97649079  0.41013912     0.07830
C526        C  0.21943954  0.99836305  0.40292084     0.05920
H527        H  0.22041195  0.96362673  0.44513934     0.11020
H528        H  0.21982348  0.00425892  0.38572858     0.09860
N529        N  0.21696523  0.10494412  0.65515850    -0.24530
N530        N  0.21750056  0.09284476  0.67380821    -0.32390
C531        C  0.21870137  0.10636529  0.69181746     0.03810
C532        C  0.21897087  0.12822714  0.68447165     0.09840
C533        C  0.21782851  0.12695418  0.66111171    -0.03260
H534        H  0.21947889  0.10059173  0.70904102     0.10500
H535        H  0.21776615  0.14088438  0.64941557     0.11700
Cu536      Cu  0.21719648  0.05855746  0.67516008     0.44170
Cu537      Cu  0.21545654  0.08925380  0.62307327     0.41990
Cu538      Cu  0.21539169  0.02648537  0.62572843     0.43880
N539        N  0.21781489  0.02424867  0.67559069    -0.31920
N540        N  0.21714936  0.01187568  0.65716602    -0.26170
C541        C  0.21810239  0.99001118  0.66295579    -0.02270
C542        C  0.21944655  0.98897771  0.68611276     0.09950
C543        C  0.21921672  0.01084468  0.69363652     0.03740
H544        H  0.21792627  0.97605929  0.65124468     0.11390
H545        H  0.22008995  0.01664000  0.71086780     0.10470
N546        N  0.21446003  0.04496719  0.59633058    -0.33360
N547        N  0.21447252  0.06723709  0.59485272    -0.25550
C548        C  0.21409304  0.07275547  0.57280557    -0.00780
C549        C  0.21387971  0.05307506  0.56003984     0.07830
C550        C  0.21410751  0.03590979  0.57559418     0.05920
H551        H  0.21416073  0.08983110  0.56650614     0.11020
H552        H  0.21417766  0.01802705  0.57214810     0.09860
C553        C  0.14051028  0.76488406  0.27745009     0.05890
C554        C  0.12494043  0.74712340  0.27680993    -0.10260
C555        C  0.12643637  0.73056771  0.25997013     0.03390
C556        C  0.14343007  0.73195823  0.24375079    -0.08790
C557        C  0.15894741  0.74969399  0.24442463     0.05880
C558        C  0.15748131  0.76609558  0.26124529    -0.08210
H559        H  0.11175816  0.74619386  0.28932013     0.11480
H560        H  0.14456994  0.71930109  0.23064951     0.09010
H561        H  0.16953961  0.77977355  0.26173202     0.08850
C562        C  0.12496696  0.83249249  0.35855187     0.05890
C563        C  0.14218493  0.84847968  0.35786802    -0.10260
C564        C  0.15855422  0.84741854  0.34106200     0.03390
C565        C  0.15769234  0.83031989  0.32480040    -0.08790
C566        C  0.14037312  0.81429624  0.32537283     0.05880
C567        C  0.12398929  0.81543284  0.34225359    -0.08210
H568        H  0.14286274  0.86172191  0.37042595     0.11480
H569        H  0.17042375  0.82946694  0.31182307     0.09010
H570        H  0.11057760  0.80309612  0.34272709     0.08850
C571        C  0.22261324  0.73475568  0.16262406     0.05890
C572        C  0.20652566  0.73526053  0.17967867    -0.10260
C573        C  0.20771099  0.75169359  0.19647853     0.03390
C574        C  0.22503826  0.76768996  0.19619325    -0.08790
C575        C  0.24113469  0.76715694  0.17899257     0.05880
C576        C  0.23988805  0.75069309  0.16221280    -0.08210
H577        H  0.19308528  0.72293412  0.17984196     0.11480
H578        H  0.22596854  0.78044969  0.20921068     0.09010
H579        H  0.25226482  0.75031974  0.14886425     0.08850
C580        C  0.32469326  0.83111588  0.16257821     0.05890
C581        C  0.30797645  0.81446291  0.16182575    -0.10260
C582        C  0.29114577  0.81400313  0.17828566     0.03390
C583        C  0.29098146  0.83012102  0.19540288    -0.08790
C584        C  0.30754038  0.84675766  0.19616315     0.05880
C585        C  0.32442315  0.84731259  0.17975669    -0.08210
H586        H  0.30803679  0.80198547  0.14850713     0.11480
H587        H  0.27794448  0.82974073  0.20811208     0.09010
H588        H  0.33722518  0.86028167  0.18032920     0.08850
C589        C  0.22468093  0.92693735  0.36253322     0.05890
C590        C  0.20778664  0.91056889  0.36090934    -0.10260
C591        C  0.20790644  0.89501006  0.34317195     0.03390
C592        C  0.22486452  0.89579613  0.32695571    -0.08790
C593        C  0.24176292  0.91211820  0.32833045     0.05880
C594        C  0.24167234  0.92776168  0.34611928    -0.08210
H595        H  0.19459099  0.90991761  0.37343169     0.11480
H596        H  0.22493268  0.88368172  0.31329695     0.09010
H597        H  0.25472303  0.94044013  0.34719580     0.08850
C598        C  0.32410273  0.92628182  0.26294783     0.05890
C599        C  0.32351733  0.90971894  0.24629346    -0.10260
C600        C  0.30638483  0.89365303  0.24621995     0.03390
C601        C  0.28970304  0.89415574  0.26288607    -0.08790
C602        C  0.29025314  0.91087521  0.27961456     0.05880
C603        C  0.30748065  0.92693616  0.27956895    -0.08210
H604        H  0.33633430  0.90938225  0.23336161     0.11480
H605        H  0.27641487  0.88168213  0.26281963     0.09010
H606        H  0.30792096  0.93993434  0.29238299     0.08850
N607        N  0.03722827  0.25645808  0.42600761    -0.24530
N608        N  0.04916647  0.25698904  0.44475344    -0.32390
C609        C  0.07113559  0.25799976  0.43925012     0.03810
C610        C  0.07270719  0.25808158  0.41599376     0.09840
C611        C  0.05098618  0.25710941  0.40818547    -0.03260
H612        H  0.08482331  0.25886378  0.45120953     0.10500
H613        H  0.04550201  0.25716846  0.39083271     0.11700
Cu614      Cu  0.03374723  0.25687137  0.47635679     0.44170
Cu615      Cu  0.00284380  0.25578530  0.42511866     0.41990
Cu616      Cu  0.97109892  0.25714015  0.47598129     0.43880
N617        N  0.01344565  0.25709725  0.50508498    -0.31920
N618        N  0.99117565  0.25717249  0.50496508    -0.26170
C619        C  0.98380401  0.25762024  0.52638281    -0.02270
C620        C  0.00220873  0.25786534  0.54067326     0.09950
C621        C  0.02068961  0.25750348  0.52657356     0.03740
H622        H  0.96629875  0.25793617  0.53117582     0.11390
H623        H  0.03816633  0.25769610  0.53154355     0.10470
N624        N  0.95624531  0.25753855  0.44404874    -0.33360
N625        N  0.96847566  0.25689900  0.42553376    -0.25550
C626        C  0.95503161  0.25782701  0.40744804    -0.00780
C627        C  0.93322554  0.25912719  0.41482886     0.07830
C628        C  0.93438831  0.25890299  0.43810935     0.05920
H629        H  0.96079507  0.25784775  0.39021143     0.11020
H630        H  0.92051714  0.25990615  0.44978509     0.09860
N631        N  0.96635064  0.26701283  0.67961172    -0.24530
N632        N  0.95476373  0.26518098  0.66072447    -0.32390
C633        C  0.93269082  0.26537770  0.66573806     0.03810
C634        C  0.93068435  0.26742162  0.68881841     0.09840
C635        C  0.95222134  0.26841819  0.69708299    -0.03260
H636        H  0.91922703  0.26415534  0.65355670     0.10500
H637        H  0.95731416  0.27005280  0.71447872     0.11700
Cu638      Cu  0.97044426  0.26263261  0.62952301     0.44170
Cu639      Cu  0.00068535  0.26751210  0.68116588     0.41990
Cu640      Cu  0.03269425  0.26299437  0.63045420     0.43880
N641        N  0.99075136  0.26072789  0.60101972    -0.31920
N642        N  0.01300769  0.26083806  0.60126198    -0.26170
C643        C  0.02047698  0.25967512  0.57989688    -0.02270
C644        C  0.00211923  0.25881621  0.56554796     0.09950
C645        C  0.98358642  0.25950353  0.57955228     0.03740
H646        H  0.03800333  0.25963935  0.57516274     0.11390
H647        H  0.96612536  0.25929692  0.57452636     0.10470
N648        N  0.04732794  0.26582442  0.66238618    -0.33360
N649        N  0.03505994  0.26752066  0.68081540    -0.25550
C650        C  0.04852310  0.26914965  0.69884899    -0.00780
C651        C  0.07037566  0.26846066  0.69150415     0.07830
C652        C  0.06921280  0.26633844  0.66832786     0.05920
H653        H  0.04276088  0.27069238  0.71601655     0.11020
H654        H  0.08313038  0.26524808  0.65671424     0.09860
C655        C  0.68580775  0.26260416  0.17047200     0.05890
C656        C  0.70250844  0.27922887  0.16929404    -0.10260
C657        C  0.71995609  0.27956712  0.18517513     0.03390
C658        C  0.72069015  0.26325143  0.20214349    -0.08790
C659        C  0.70405197  0.24663892  0.20319908     0.05880
C660        C  0.68665473  0.24629488  0.18737832    -0.08210
H661        H  0.70193012  0.29180977  0.15611396     0.11480
H662        H  0.73413035  0.26348682  0.21446865     0.09010
H663        H  0.67382237  0.23336508  0.18821447     0.08850
C664        C  0.78691473  0.36103454  0.16974184     0.05890
C665        C  0.76992640  0.34468259  0.16879817    -0.10260
C666        C  0.76919464  0.32746933  0.18490138     0.03390
C667        C  0.78550000  0.32658345  0.20189961    -0.08790
C668        C  0.80252047  0.34284098  0.20279019     0.05880
C669        C  0.80323497  0.36003055  0.18669862    -0.08210
H670        H  0.75732260  0.34537752  0.15563787     0.11480
H671        H  0.78491804  0.31333199  0.21440741     0.09010
H672        H  0.81642003  0.37260798  0.18739930     0.08850
C673        C  0.68740748  0.16480426  0.26728202     0.05890
C674        C  0.68791725  0.18154742  0.25077973    -0.10260
C675        C  0.70418957  0.19850984  0.25178944     0.03390
C676        C  0.71996290  0.19874876  0.26924464    -0.08790
C677        C  0.71948588  0.18195214  0.28570598     0.05880
C678        C  0.70322814  0.16494483  0.28473687    -0.08210
H679        H  0.67574117  0.18135574  0.23719695     0.11480
H680        H  0.73256338  0.21191287  0.26999220     0.09010
H681        H  0.70291983  0.15188221  0.29745190     0.08850
C682        C  0.78227925  0.16691703  0.36959603     0.05890
C683        C  0.76590905  0.16665467  0.35267708    -0.10260
C684        C  0.76623675  0.18297924  0.33575269     0.03390
C685        C  0.78291446  0.19957909  0.33570861    -0.08790
C686        C  0.79931854  0.19981779  0.35259633     0.05880
C687        C  0.79902367  0.18347415  0.36956075    -0.08210
H688        H  0.75305321  0.15372149  0.35260430     0.11480
H689        H  0.78318705  0.21218755  0.32254042     0.09010
H690        H  0.81180729  0.18356586  0.38256800     0.08850
C691        C  0.88209400  0.26309534  0.36943200     0.05890
C692        C  0.86491612  0.24702874  0.36915773    -0.10260
C693        C  0.84863638  0.24743461  0.35216880     0.03390
C694        C  0.84951920  0.26391722  0.33534832    -0.08790
C695        C  0.86674570  0.28001805  0.33549737     0.05880
C696        C  0.88305989  0.27956962  0.35255719    -0.08210
H697        H  0.86424324  0.23421092  0.38210984     0.11480
H698        H  0.83687714  0.26420252  0.32220843     0.09010
H699        H  0.89644157  0.29194760  0.35268725     0.08850
C700        C  0.88292178  0.36133926  0.26832253     0.05890
C701        C  0.86636097  0.36014460  0.25162729    -0.10260
C702        C  0.85033846  0.34289723  0.25203449     0.03390
C703        C  0.85087617  0.32671820  0.26915616    -0.08790
C704        C  0.86747698  0.32774622  0.28588340     0.05880
C705        C  0.88353566  0.34506397  0.28543170    -0.08210
H706        H  0.86592407  0.37263527  0.23834832     0.11480
H707        H  0.83841413  0.31341409  0.26948014     0.09010
H708        H  0.89640641  0.34588640  0.29832198     0.08850
N709        N  0.04904156  0.43730919  0.26424498    -0.24530
N710        N  0.03695225  0.41869342  0.26514190    -0.32390
C711        C  0.05050227  0.40085402  0.26750216     0.03810
C712        C  0.07221503  0.40858915  0.26813704     0.09840
C713        C  0.07092266  0.43174383  0.26601523    -0.03260
H714        H  0.04488822  0.38358111  0.26874091     0.10500
H715        H  0.08472095  0.44359376  0.26585100     0.11700
Cu716      Cu  0.00274903  0.41809163  0.26361754     0.44170
Cu717      Cu  0.03397429  0.46878509  0.26102017     0.41990
Cu718      Cu  0.97128687  0.46911314  0.25966837     0.43880
N719        N  0.96850680  0.41859258  0.26330214    -0.31920
N720        N  0.95621301  0.43706622  0.26195289    -0.26170
C721        C  0.93433257  0.43099732  0.26268664    -0.02270
C722        C  0.93329391  0.40771662  0.26460811     0.09950
C723        C  0.95517619  0.40049036  0.26492264     0.03740
H724        H  0.92033435  0.44258477  0.26203346     0.11390
H725        H  0.96107238  0.38333468  0.26640396     0.10470
N726        N  0.99190990  0.49799852  0.25809218    -0.33360
N727        N  0.01417839  0.49765176  0.25852085    -0.25550
C728        C  0.02196236  0.51892399  0.25749241    -0.00780
C729        C  0.00388782  0.53350931  0.25639487     0.07830
C730        C  0.98510022  0.51964415  0.25679633     0.05920
H731        H  0.03955590  0.52342757  0.25774340     0.11020
H732        H  0.96772430  0.52491631  0.25634540     0.09860
N733        N  0.05322786  0.65449824  0.25494033    -0.24530
N734        N  0.04112151  0.67312680  0.25418018    -0.32390
C735        C  0.05462441  0.69117389  0.25487935     0.03810
C736        C  0.07642389  0.68375264  0.25613924     0.09840
C737        C  0.07514491  0.66039584  0.25614784    -0.03260
H738        H  0.04889205  0.70845055  0.25478642     0.10500
H739        H  0.08899189  0.64865802  0.25720026     0.11700
Cu740      Cu  0.00682150  0.67390120  0.25332394     0.44170
Cu741      Cu  0.03775628  0.62257982  0.25484698     0.41990
Cu742      Cu  0.97482227  0.62365520  0.25507220     0.43880
N743        N  0.97254605  0.67402997  0.25493400    -0.31920
N744        N  0.96013190  0.65562073  0.25575137    -0.26170
C745        C  0.93838012  0.66176260  0.25754532    -0.02270
C746        C  0.93749721  0.68507811  0.25788696     0.09950
C747        C  0.95935110  0.69226466  0.25618054     0.03740
H748        H  0.92439469  0.65020057  0.25875844     0.11390
H749        H  0.96532165  0.70946538  0.25614149     0.10470
N750        N  0.99449778  0.59445713  0.25495451    -0.33360
N751        N  0.01677505  0.59394025  0.25494438    -0.25550
C752        C  0.02347258  0.57223322  0.25528431    -0.00780
C753        C  0.00462838  0.55846305  0.25552391     0.07830
C754        C  0.98661334  0.57317886  0.25527877     0.05920
H755        H  0.04082260  0.56686941  0.25550746     0.11020
H756        H  0.96899766  0.56876892  0.25553355     0.09860
N757        N  0.39787451  0.00068437  0.25961306    -0.24530
N758        N  0.37940073  0.01289318  0.26112667    -0.32390
C759        C  0.36145579  0.99931801  0.26194739     0.03810
C760        C  0.36899575  0.97750857  0.26091770     0.09840
C761        C  0.39213149  0.97874406  0.25943166    -0.03260
H762        H  0.34425204  0.00496547  0.26338987     0.10500
H763        H  0.40385757  0.96487334  0.25849040     0.11700
Cu764      Cu  0.37903905  0.04726714  0.26258104     0.44170
Cu765      Cu  0.42944991  0.01545411  0.25844496     0.41990
Cu766      Cu  0.43029548  0.07813768  0.26143987     0.43880
N767        N  0.38001936  0.08163648  0.26433893    -0.31920
N768        N  0.39871506  0.09362121  0.26393552    -0.26170
C769        C  0.39317651  0.11562339  0.26544010    -0.02270
C770        C  0.36996446  0.11713915  0.26685048     0.09950
C771        C  0.36222774  0.09536003  0.26609768     0.03740
H772        H  0.40507763  0.12938651  0.26551375     0.11390
H773        H  0.34493847  0.08981942  0.26677420     0.10470
N774        N  0.45877895  0.05741664  0.25926028    -0.33360
N775        N  0.45830973  0.03513110  0.25822042    -0.25550
C776        C  0.47948922  0.02728661  0.25730628    -0.00780
C777        C  0.49406189  0.04538195  0.25778389     0.07830
C778        C  0.48037902  0.06421256  0.25900387     0.05920
H779        H  0.48391459  0.00964443  0.25650699     0.11020
H780        H  0.48572126  0.08160355  0.25983408     0.09860
N781        N  0.63276743  0.00800309  0.25919162    -0.24530
N782        N  0.61389180  0.99630685  0.25846819    -0.32390
C783        C  0.61905748  0.97420934  0.25867088     0.03810
C784        C  0.64220237  0.97234291  0.25953921     0.09840
C785        C  0.65035019  0.99395240  0.25986576    -0.03260
H786        H  0.60693821  0.96064363  0.25838853     0.10500
H787        H  0.66773582  0.99915498  0.26072826     0.11700
Cu788      Cu  0.58247325  0.01183850  0.25765694     0.44170
Cu789      Cu  0.63441583  0.04233981  0.25976202     0.41990
Cu790      Cu  0.58377974  0.07407876  0.25916389     0.43880
N791        N  0.55407594  0.03249789  0.25747209    -0.31920
N792        N  0.55463896  0.05478233  0.25804122    -0.26170
C793        C  0.53346696  0.06271270  0.25808804    -0.02270
C794        C  0.51884010  0.04464616  0.25752313     0.09950
C795        C  0.53247485  0.02575601  0.25712173     0.03740
H796        H  0.52907919  0.08037713  0.25865524     0.11390
H797        H  0.52711285  0.00835484  0.25679599     0.10470
N798        N  0.61539601  0.08883822  0.26075227    -0.33360
N799        N  0.63398026  0.07670133  0.26094180    -0.25550
C800        C  0.65187456  0.09033165  0.26230061    -0.00780
C801        C  0.64416689  0.11210984  0.26300120     0.07830
C802        C  0.62100886  0.11077203  0.26199197     0.05920
H803        H  0.66914781  0.08473844  0.26285372     0.11020
H804        H  0.60917428  0.12458239  0.26225429     0.09860
C805        C  0.22256529  0.36945288  0.17775455     0.05890
C806        C  0.23969277  0.35314122  0.17695091    -0.10260
C807        C  0.24022141  0.33565542  0.19288052     0.03390
C808        C  0.22365117  0.33447755  0.20947163    -0.08790
C809        C  0.20656808  0.35058264  0.21024238     0.05880
C810        C  0.20598806  0.36803557  0.19441054    -0.08210
H811        H  0.25247569  0.35402876  0.16403122     0.11480
H812        H  0.22403345  0.32101352  0.22177057     0.09010
H813        H  0.19265397  0.38044773  0.19503018     0.08850
C814        C  0.28869987  0.28685335  0.19364344     0.05890
C815        C  0.30550557  0.28668470  0.17719107    -0.10260
C816        C  0.32208801  0.26998252  0.17748112     0.03390
C817        C  0.32187667  0.25337804  0.19403367    -0.08790
C818        C  0.30517934  0.25341800  0.21047330     0.05880
C819        C  0.28852543  0.27016290  0.21037669    -0.08210
H820        H  0.30563432  0.29944519  0.16416473     0.11480
H821        H  0.33464870  0.24035639  0.19405309     0.09010
H822        H  0.27555181  0.27016945  0.22313514     0.08850
C823        C  0.32525494  0.16899780  0.27130995     0.05890
C824        C  0.32470124  0.18649622  0.25548902    -0.10260
C825        C  0.30770904  0.20281130  0.25651560     0.03390
C826        C  0.29133175  0.20167128  0.27321051    -0.08790
C827        C  0.29172808  0.18427104  0.28893989     0.05880
C828        C  0.30866291  0.16786002  0.28805048    -0.08210
H829        H  0.33735289  0.18737448  0.24243339     0.11480
H830        H  0.27820630  0.21431675  0.27391941     0.09010
H831        H  0.30888983  0.15429922  0.30023003     0.08850
C832        C  0.24147677  0.18486693  0.33532275     0.05890
C833        C  0.24030692  0.16804686  0.35167153    -0.10260
C834        C  0.22296284  0.16829413  0.36744338     0.03390
C835        C  0.20670977  0.18517996  0.36693689    -0.08790
C836        C  0.20779220  0.20203064  0.35063424     0.05880
C837        C  0.22520064  0.20196468  0.33474738    -0.08210
H838        H  0.25279622  0.15476400  0.35207053     0.11480
H839        H  0.19320071  0.18515559  0.37915077     0.09010
H840        H  0.22604345  0.21502632  0.32206307     0.08850
C841        C  0.12398293  0.36450483  0.27331953     0.05890
C842        C  0.14122360  0.36441254  0.25741761    -0.10260
C843        C  0.15779504  0.34776986  0.25814167     0.03390
C844        C  0.15711803  0.33111504  0.27481194    -0.08790
C845        C  0.13975122  0.33116843  0.29072797     0.05880
C846        C  0.12316979  0.34785997  0.28994846    -0.08210
H847        H  0.14171255  0.37724407  0.24446308     0.11480
H848        H  0.16997605  0.31821091  0.27537715     0.09010
H849        H  0.10968925  0.34787437  0.30218147     0.08850
C850        C  0.12437461  0.26301096  0.37139410     0.05890
C851        C  0.14176958  0.24715770  0.37013826    -0.10260
C852        C  0.15795308  0.24881707  0.35311917     0.03390
C853        C  0.15676126  0.26620507  0.33737866    -0.08790
C854        C  0.13941494  0.28199988  0.33851362     0.05880
C855        C  0.12317705  0.28043100  0.35550103    -0.08210
H856        H  0.14268888  0.23360017  0.38229560     0.11480
H857        H  0.16931335  0.26743220  0.32424175     0.09010
H858        H  0.10968913  0.29265779  0.35632628     0.08850
N859        N  0.01575021  0.84609576  0.49339822    -0.24530
N860        N  0.99348227  0.84582395  0.49321968    -0.32390
C861        C  0.98597059  0.84680441  0.51456049     0.03810
C862        C  0.00425316  0.84772422  0.52894502     0.09840
C863        C  0.02284720  0.84727244  0.51492960    -0.03260
H864        H  0.96843392  0.84661132  0.51924969     0.10500
H865        H  0.04029266  0.84751451  0.52001304     0.11700
Cu866      Cu  0.97345927  0.84350980  0.46441427     0.44170
Cu867      Cu  0.03607804  0.84423979  0.46458897     0.41990
Cu868      Cu  0.00465422  0.84090131  0.41364626     0.43880
N869        N  0.95839583  0.84030480  0.43286964    -0.31920
N870        N  0.97048894  0.83947610  0.41428973    -0.26170
C871        C  0.95699016  0.83685608  0.39644044    -0.02270
C872        C  0.93529534  0.83596670  0.40410656     0.09950
C873        C  0.93654007  0.83822498  0.42724710     0.03740
H874        H  0.96264315  0.83545793  0.37922384     0.11390
H875        H  0.92274379  0.83813724  0.43905283     0.10470
N876        N  0.03885563  0.84042025  0.41425808    -0.33360
N877        N  0.05108582  0.84152135  0.43279016    -0.25550
C878        C  0.07295402  0.84014927  0.42695537    -0.00780
C879        C  0.07405639  0.83807691  0.40375199     0.07830
C880        C  0.05224228  0.83832219  0.39629618     0.05920
H881        H  0.08688439  0.84043843  0.43865770     0.11020
H882        H  0.04643151  0.83686279  0.37911194     0.09860
N883        N  0.03701344  0.84764750  0.66917320    -0.24530
N884        N  0.04932431  0.84775703  0.65070770    -0.32390
C885        C  0.07118315  0.84663188  0.65670645     0.03810
C886        C  0.07226913  0.84578018  0.67998488     0.09840
C887        C  0.05040172  0.84646126  0.68728926    -0.03260
H888        H  0.08510962  0.84612844  0.64506450     0.10500
H889        H  0.04456234  0.84574817  0.70448511     0.11700
Cu890      Cu  0.03448103  0.84857942  0.61877576     0.44170
Cu891      Cu  0.00262260  0.84781759  0.66935560     0.41990
Cu892      Cu  0.97168875  0.84686857  0.61806264     0.43880
N893        N  0.01455397  0.84863603  0.58969681    -0.31920
N894        N  0.99228500  0.84804887  0.58939638    -0.26170
C895        C  0.98527792  0.84787864  0.56781164    -0.02270
C896        C  0.00390826  0.84833724  0.55386046     0.09950
C897        C  0.02214106  0.84883459  0.56834361     0.03740
H898        H  0.96786520  0.84720695  0.56266118     0.11390
H899        H  0.03969333  0.84908504  0.56372075     0.10470
N900        N  0.95628668  0.84525908  0.64978138    -0.33360
N901        N  0.96829504  0.84578077  0.66848761    -0.25550
C902        C  0.95470174  0.84406012  0.68636551    -0.00780
C903        C  0.93298306  0.84236600  0.67869290     0.07830
C904        C  0.93440053  0.84317562  0.65541009     0.05920
H905        H  0.96031284  0.84379753  0.70367549     0.11020
H906        H  0.92066781  0.84210724  0.64351993     0.09860
N907        N  0.78106740  0.99774998  0.44240631    -0.24530
N908        N  0.77988620  0.00971834  0.42369963    -0.32390
C909        C  0.77971988  0.99593358  0.40581766     0.03810
C910        C  0.78084028  0.97414335  0.41345035     0.09840
C911        C  0.78168427  0.97571189  0.43673184    -0.03260
H912        H  0.77896021  0.00145150  0.38850751     0.10500
H913        H  0.78274362  0.96195530  0.44858790     0.11700
Cu914      Cu  0.77904188  0.04421089  0.42245153     0.44170
Cu915      Cu  0.78191410  0.01312760  0.47431883     0.41990
Cu916      Cu  0.78171545  0.07562743  0.47294287     0.43880
N917        N  0.77979024  0.07872314  0.42290083    -0.31920
N918        N  0.78090300  0.09069992  0.44158917    -0.26170
C919        C  0.78164656  0.11269663  0.43620932    -0.02270
C920        C  0.78096617  0.11430798  0.41304887     0.09950
C921        C  0.77979250  0.09258189  0.40511348     0.03740
H922        H  0.78275704  0.12636275  0.44820186     0.11390
H923        H  0.77918790  0.08718805  0.38774189     0.10470
N924        N  0.78236676  0.05648229  0.50201698    -0.33360
N925        N  0.78244446  0.03419171  0.50284894    -0.25550
C926        C  0.78283868  0.02788263  0.52463779    -0.00780
C927        C  0.78301332  0.04707892  0.53798610     0.07830
C928        C  0.78270691  0.06482125  0.52304546     0.05920
H929        H  0.78295112  0.01059702  0.53033706     0.11020
H930        H  0.78269283  0.08257426  0.52710814     0.09860
N931        N  0.78361396  0.01817383  0.67814564    -0.24530
N932        N  0.78352169  0.00597791  0.65957144    -0.32390
C933        C  0.78299820  0.98406198  0.66517624     0.03810
C934        C  0.78274143  0.98281355  0.68833124     0.09840
C935        C  0.78315063  0.00457830  0.69608434    -0.03260
H936        H  0.78271724  0.97022154  0.65333744     0.10500
H937        H  0.78300777  0.01018058  0.71339638     0.11700
Cu938      Cu  0.78378027  0.02048921  0.62803589     0.44170
Cu939      Cu  0.78396550  0.05248977  0.67841497     0.41990
Cu940      Cu  0.78355870  0.08274304  0.62621729     0.43880
N941        N  0.78366791  0.03927766  0.59878830    -0.31920
N942        N  0.78357022  0.06155502  0.59784619    -0.26170
C943        C  0.78337481  0.06776504  0.57604354    -0.02270
C944        C  0.78334029  0.04851701  0.56277890     0.09950
C945        C  0.78353529  0.03083020  0.57779620     0.03740
H946        H  0.78321006  0.08503091  0.57027836     0.11390
H947        H  0.78351777  0.01305739  0.57381244     0.10470
N948        N  0.78346294  0.09850412  0.65786690    -0.33360
N949        N  0.78366557  0.08678033  0.67674884    -0.25550
C950        C  0.78338968  0.10074701  0.69445349    -0.00780
C951        C  0.78299982  0.12240572  0.68647652     0.07830
C952        C  0.78304950  0.12060197  0.66322387     0.05920
H953        H  0.78336207  0.09544063  0.71184237     0.11020
H954        H  0.78271515  0.13422698  0.65117523     0.09860
C955        C  0.68889599  0.82622825  0.16501753     0.05890
C956        C  0.70554095  0.80961441  0.16340009    -0.10260
C957        C  0.72279500  0.80867854  0.17943365     0.03390
C958        C  0.72344590  0.82435705  0.19701294    -0.08790
C959        C  0.70688571  0.84098292  0.19855105     0.05880
C960        C  0.68963299  0.84194601  0.18255062    -0.08210
H961        H  0.70506874  0.79749737  0.14975937     0.11480
H962        H  0.73677172  0.82361833  0.20944184     0.09010
H963        H  0.67683947  0.85487803  0.18373799     0.08850
C964        C  0.79010625  0.72815538  0.16210634     0.05890
C965        C  0.77289682  0.74422422  0.16158168    -0.10260
C966        C  0.77206301  0.76109535  0.17801873     0.03390
C967        C  0.78843664  0.76191254  0.19492397    -0.08790
C968        C  0.80564826  0.74588173  0.19536311     0.05880
C969        C  0.80650757  0.72901054  0.17895573    -0.08210
H970        H  0.76025297  0.74361881  0.14845125     0.11480
H971        H  0.78778705  0.77495806  0.20767669     0.09010
H972        H  0.81988350  0.71663190  0.17928260     0.08850
C973        C  0.88630482  0.73039113  0.26152916     0.05890
C974        C  0.86993285  0.73053940  0.24463280    -0.10260
C975        C  0.85332969  0.74718430  0.24449281     0.03390
C976        C  0.85305333  0.76377896  0.26121045    -0.08790
C977        C  0.86944130  0.76377619  0.27812629     0.05880
C978        C  0.88612865  0.74707311  0.27827955    -0.08210
H979        H  0.87010716  0.71773052  0.23162364     0.11480
H980        H  0.84011964  0.77662336  0.26107111     0.09010
H981        H  0.89886436  0.74705266  0.29132730     0.08850
C982        C  0.88341782  0.82955028  0.36021926     0.05890
C983        C  0.88419382  0.81317641  0.34326567    -0.10260
C984        C  0.86723689  0.81230333  0.32690492     0.03390
C985        C  0.84954471  0.82792010  0.32753530    -0.08790
C986        C  0.84893968  0.84433323  0.34452178     0.05880
C987        C  0.86587261  0.84511145  0.36077740    -0.08210
H988        H  0.89791519  0.80119279  0.34280597     0.11480
H989        H  0.83638220  0.82730962  0.31493553     0.09010
H990        H  0.86541277  0.85785252  0.37385314     0.08850
C991        C  0.70559412  0.88802454  0.24834350     0.05890
C992        C  0.68832572  0.90393701  0.24699122    -0.10260
C993        C  0.68647853  0.92070168  0.26339101     0.03390
C994        C  0.70196289  0.92168552  0.28110137    -0.08790
C995        C  0.71924609  0.90579199  0.28250023     0.05880
C996        C  0.72107955  0.88889978  0.26610973    -0.08210
H997        H  0.67640451  0.90331091  0.23319506     0.11480
H998        H  0.70060500  0.93481483  0.29371229     0.09010
H999        H  0.73446148  0.87657535  0.26714677     0.08850
C1000       C  0.78163771  0.92303392  0.36754886     0.05890
C1001       C  0.76492751  0.92345161  0.35083817    -0.10260
C1002       C  0.76537933  0.90770418  0.33323543     0.03390
C1003       C  0.78245995  0.89162724  0.33229587    -0.08790
C1004       C  0.79915544  0.89119441  0.34880682     0.05880
C1005       C  0.79880998  0.90688967  0.36645569    -0.08210
H1006       H  0.75171616  0.93598411  0.35148463     0.11480
H1007       H  0.78280220  0.87948608  0.31866077     0.09010
H1008       H  0.81184816  0.90658648  0.37919809     0.08850
C1009       C  0.73510254  0.90696826  0.30072909    -0.10510
C1010       C  0.74853793  0.90784669  0.31587903    -0.12070
C1011       C  0.81662734  0.87459852  0.34731682    -0.10510
C1012       C  0.83109145  0.86055212  0.34557395    -0.12070
C1013       C  0.86891929  0.78089242  0.29531403    -0.10510
C1014       C  0.86805683  0.79530787  0.30960514    -0.12070
C1015       C  0.82241454  0.74668592  0.21269151    -0.10510
C1016       C  0.83649070  0.74710314  0.22721423    -0.12070
C1017       C  0.70750210  0.85707162  0.21657067    -0.10510
C1018       C  0.70723784  0.87091081  0.23136135    -0.12070
C1019       C  0.73983925  0.79161882  0.17803212    -0.10510
C1020       C  0.75441066  0.77757288  0.17765404    -0.12070
C1021       C  0.78144865  0.93953354  0.38542887    -0.10510
C1022       C  0.78123851  0.95439686  0.39933555    -0.12070
C1023       C  0.90082331  0.83087094  0.37687259    -0.10510
C1024       C  0.91584606  0.83296751  0.39025449    -0.12070
C1025       C  0.13890041  0.31412961  0.30786192    -0.10510
C1026       C  0.13854383  0.29972669  0.32210237    -0.12070
C1027       C  0.19079233  0.21913551  0.35049287    -0.10510
C1028       C  0.17585250  0.23271515  0.35164266    -0.12070
C1029       C  0.27447846  0.18358679  0.30576823    -0.10510
C1030       C  0.25939665  0.18429199  0.31920437    -0.12070
C1031       C  0.30672477  0.22079429  0.24045949    -0.10510
C1032       C  0.30542245  0.23598877  0.22716198    -0.12070
C1033       C  0.18962702  0.34910137  0.22734762    -0.10510
C1034       C  0.17536432  0.34799688  0.24162836    -0.12070
C1035       C  0.25761664  0.31875817  0.19251107    -0.10510
C1036       C  0.27171517  0.30415768  0.19313540    -0.12070
C1037       C  0.65566282  0.95241118  0.26057924    -0.10510
C1038       C  0.66907399  0.93732069  0.26176055    -0.12070
C1039       C  0.35604700  0.13688181  0.26864788    -0.10510
C1040       C  0.34249634  0.15195563  0.27001833    -0.12070
C1041       C  0.91825985  0.69951300  0.25999443    -0.10510
C1042       C  0.90344573  0.71329576  0.26124341    -0.12070
C1043       C  0.09176466  0.39478227  0.27048327    -0.10510
C1044       C  0.10682705  0.38140411  0.27213457    -0.12070
C1045       C  0.89945014  0.37909608  0.26754574    -0.10510
C1046       C  0.91396899  0.39324219  0.26627573    -0.12070
C1047       C  0.86759028  0.29698721  0.31816402    -0.10510
C1048       C  0.86784159  0.31108478  0.30353650    -0.12070
C1049       C  0.81656524  0.21672422  0.35234592    -0.10510
C1050       C  0.83107716  0.23083894  0.35207963    -0.12070
C1051       C  0.78216691  0.14971480  0.38652716    -0.10510
C1052       C  0.78172114  0.13422211  0.39952955    -0.12070
C1053       C  0.73576737  0.18217218  0.30351556    -0.10510
C1054       C  0.74959445  0.18253919  0.31828229    -0.12070
C1055       C  0.67093684  0.14721969  0.26601610    -0.10510
C1056       C  0.65789830  0.13181179  0.26468820    -0.12070
C1057       C  0.81917893  0.34205876  0.22032412    -0.10510
C1058       C  0.83327382  0.34202236  0.23489623    -0.12070
C1059       C  0.70469831  0.22990700  0.22053601    -0.10510
C1060       C  0.70467664  0.21566314  0.23487407    -0.12070
C1061       C  0.73708124  0.29666492  0.18424853    -0.10510
C1062       C  0.75163653  0.31079398  0.18418746    -0.12070
C1063       C  0.09243253  0.25968271  0.40214638    -0.10510
C1064       C  0.10749290  0.26116933  0.38866157    -0.12070
C1065       C  0.89897658  0.26225991  0.38678768    -0.10510
C1066       C  0.91380033  0.26095733  0.40057472    -0.12070
C1067       C  0.35506413  0.95792504  0.26177095    -0.10510
C1068       C  0.34145261  0.94300517  0.26252973    -0.12070
C1069       C  0.25913352  0.91242162  0.31142352    -0.10510
C1070       C  0.27325185  0.91169332  0.29686906    -0.12070
C1071       C  0.30619592  0.87683128  0.22884928    -0.10510
C1072       C  0.30697396  0.86320640  0.21386882    -0.12070
C1073       C  0.25893960  0.78346668  0.17839073    -0.10510
C1074       C  0.27386343  0.79713352  0.17784472    -0.12070
C1075       C  0.17624520  0.86390094  0.34082994    -0.10510
C1076       C  0.19070873  0.87806821  0.34167269    -0.12070
C1077       C  0.10814434  0.83392905  0.37583268    -0.10510
C1078       C  0.09342764  0.83573555  0.38960686    -0.12070
C1079       C  0.19098750  0.75192152  0.21385437    -0.10510
C1080       C  0.17645008  0.75108711  0.22787827    -0.12070
C1081       C  0.13952555  0.79661187  0.30875282    -0.10510
C1082       C  0.13938426  0.78192441  0.29470102    -0.12070
C1083       C  0.11028401  0.71242934  0.25898569    -0.10510
C1084       C  0.09583902  0.69816966  0.25776868    -0.12070
C1085       C  0.22146492  0.15081539  0.38379596    -0.10510
C1086       C  0.21995386  0.13535651  0.39661093    -0.12070
C1087       C  0.22415918  0.94303845  0.38084394    -0.10510
C1088       C  0.22283276  0.95722714  0.39542782    -0.12070
C1089       C  0.25060161  0.31824163  0.91952447    -0.10510
C1090       C  0.26518784  0.30417566  0.91968285    -0.12070
C1091       C  0.16939570  0.35241590  0.86979322    -0.10510
C1092       C  0.18358060  0.35171377  0.88421176    -0.12070
C1093       C  0.13586593  0.32098598  0.80124383    -0.10510
C1094       C  0.13643432  0.30665571  0.78688661    -0.12070
C1095       C  0.08992392  0.26963947  0.70565557    -0.10510
C1096       C  0.10497303  0.27066610  0.71921771    -0.12070
C1097       C  0.29917457  0.22400546  0.86884029    -0.10510
C1098       C  0.29882101  0.23794705  0.88356636    -0.12070
C1099       C  0.17350574  0.24023001  0.75399670    -0.10510
C1100       C  0.18811671  0.22617618  0.75353117    -0.12070
C1101       C  0.25561304  0.18960478  0.78467680    -0.10510
C1102       C  0.26961317  0.18931271  0.79945636    -0.12070
C1103       C  0.22143084  0.16169296  0.71377686    -0.10510
C1104       C  0.22041580  0.14760448  0.69908481    -0.12070
C1105       C  0.21950108  0.70500970  0.12997810    -0.10510
C1106       C  0.22107591  0.71816726  0.14522980    -0.12070
C1107       C  0.21982659  0.40147130  0.14668289    -0.10510
C1108       C  0.22152465  0.38734025  0.16125208    -0.12070
C1109       C  0.21317774  0.39763266  0.96848610    -0.10510
C1110       C  0.21437426  0.38439810  0.95324305    -0.12070
C1111       C  0.35144019  0.14374466  0.83831857    -0.10510
C1112       C  0.33732324  0.15826318  0.83671064    -0.12070
C1113       C  0.08743175  0.40155916  0.83731651    -0.10510
C1114       C  0.10253865  0.38807277  0.83677460    -0.12070
C1115       C  0.65389514  0.26069327  0.13961610    -0.10510
C1116       C  0.66802137  0.26188106  0.15409772    -0.12070
C1117       C  0.33896492  0.26929344  0.16036205    -0.10510
C1118       C  0.35219567  0.26788784  0.14519846    -0.12070
C1119       C  0.34702809  0.26822278  0.96677561    -0.10510
C1120       C  0.33321858  0.26932657  0.95195003    -0.12070
C1121       C  0.35097564  0.96535356  0.83315981    -0.10510
C1122       C  0.33771344  0.95018501  0.83107981    -0.12070
C1123       C  0.25671270  0.91905694  0.77909365    -0.10510
C1124       C  0.27111509  0.91864237  0.79331523    -0.12070
C1125       C  0.22179513  0.95406755  0.71303888    -0.10510
C1126       C  0.22084795  0.96942563  0.69997094    -0.12070
C1127       C  0.30380704  0.86506746  0.87204405    -0.10510
C1128       C  0.30370021  0.88015712  0.85856008    -0.12070
C1129       C  0.25775014  0.78259444  0.90699729    -0.10510
C1130       C  0.27232016  0.79673993  0.90678561    -0.12070
C1131       C  0.21953882  0.71481455  0.93677725    -0.10510
C1132       C  0.21804716  0.70075717  0.95143101    -0.12070
C1133       C  0.18875268  0.88607259  0.74537345    -0.10510
C1134       C  0.17411416  0.87213952  0.74461406    -0.12070
C1135       C  0.09166812  0.84366158  0.69427432    -0.10510
C1136       C  0.10646573  0.84193679  0.70806535    -0.12070
C1137       C  0.17534745  0.75569730  0.85577310    -0.10510
C1138       C  0.18937738  0.75442585  0.87036500    -0.12070
C1139       C  0.13904037  0.78976779  0.78919341    -0.10510
C1140       C  0.13849887  0.80430724  0.77503087    -0.12070
C1141       C  0.09408338  0.70632897  0.82397507    -0.10510
C1142       C  0.10862089  0.72040435  0.82290203    -0.12070
C1143       C  0.67131358  0.82744909  0.14844171    -0.10510
C1144       C  0.65753163  0.82868895  0.13363219    -0.12070
C1145       C  0.35522378  0.83242251  0.13028720    -0.10510
C1146       C  0.34180409  0.83182798  0.14546373    -0.12070
C1147       C  0.34174530  0.83087494  0.93668658    -0.10510
C1148       C  0.35574885  0.83167092  0.95132282    -0.12070
C1149       C  0.89331198  0.39125462  0.83077626    -0.10510
C1150       C  0.90831501  0.40491886  0.83200564    -0.12070
C1151       C  0.86264600  0.30804834  0.78033692    -0.10510
C1152       C  0.86298810  0.32295645  0.79408316    -0.12070
C1153       C  0.91063719  0.26845424  0.70206479    -0.10510
C1154       C  0.89518610  0.26957773  0.71503508    -0.12070
C1155       C  0.81129399  0.35143672  0.87445172    -0.10510
C1156       C  0.82601077  0.35318849  0.86072598    -0.12070
C1157       C  0.74474184  0.31663951  0.91001228    -0.10510
C1158       C  0.73015527  0.30268364  0.91138057    -0.12070
C1159       C  0.66372271  0.26729959  0.94647984    -0.10510
C1160       C  0.65037681  0.26574717  0.96162304    -0.12070
C1161       C  0.69921352  0.22010155  0.86490207    -0.10510
C1162       C  0.69823847  0.23433671  0.87919678    -0.12070
C1163       C  0.66817523  0.15074304  0.83398315    -0.10510
C1164       C  0.65501454  0.13557822  0.83618936    -0.12070
C1165       C  0.81318524  0.22464127  0.75034840    -0.10510
C1166       C  0.82723698  0.23922849  0.75037074    -0.12070
C1167       C  0.73327884  0.18647655  0.79757613    -0.10510
C1168       C  0.74735833  0.18715030  0.78306428    -0.12070
C1169       C  0.78235692  0.14225783  0.70027393    -0.10510
C1170       C  0.78177994  0.15719241  0.71401313    -0.12070
C1171       C  0.79120644  0.71106901  0.14507295    -0.10510
C1172       C  0.79226633  0.69759426  0.13000398    -0.12070
C1173       C  0.78861216  0.39260116  0.13840881    -0.10510
C1174       C  0.78779131  0.37867855  0.15314676    -0.12070
C1175       C  0.78205889  0.39494790  0.95949887    -0.10510
C1176       C  0.78060557  0.38239789  0.94378899    -0.12070
C1177       C  0.78155015  0.94772974  0.71494532    -0.10510
C1178       C  0.78199919  0.96315453  0.70198776    -0.12070
C1179       C  0.73409763  0.91308859  0.79583651    -0.10510
C1180       C  0.74844489  0.91293310  0.78159345    -0.12070
C1181       C  0.66688031  0.94288895  0.83461992    -0.10510
C1182       C  0.65306147  0.95760146  0.83688203    -0.12070
C1183       C  0.83074134  0.86654632  0.74411425    -0.10510
C1184       C  0.81576303  0.87999408  0.74592776    -0.12070
C1185       C  0.89858837  0.83774982  0.70639947    -0.10510
C1186       C  0.91344474  0.83975992  0.69272134    -0.12070
C1187       C  0.86674425  0.78483365  0.78743168    -0.10510
C1188       C  0.86729635  0.79914223  0.77310608    -0.12070
C1189       C  0.90085503  0.71809444  0.82148751    -0.10510
C1190       C  0.91620048  0.70509969  0.82273492    -0.12070
C1191       C  0.81914366  0.74682982  0.86912162    -0.10510
C1192       C  0.83259472  0.74897371  0.85420460    -0.12070
C1193       C  0.79020914  0.70724545  0.93605894    -0.10510
C1194       C  0.79147600  0.69347865  0.95095044    -0.12070
C1195       C  0.70452014  0.87425511  0.86159012    -0.10510
C1196       C  0.70574055  0.85890893  0.87467846    -0.12070
C1197       C  0.75253956  0.77543776  0.90721206    -0.10510
C1198       C  0.73845117  0.78996967  0.90728175    -0.12070
C1199       C  0.67147813  0.82452548  0.94053235    -0.10510
C1200       C  0.65802506  0.82577553  0.95547856    -0.12070
loop_ 
_geom_bond_atom_site_label_1 
_geom_bond_atom_site_label_2 
_geom_bond_distance 
_geom_bond_site_symmetry_2 
_ccdc_geom_bond_type 
C1            C2   1.399       .  A
C1            C6   1.403       .  A
C1         C1198   1.436       .  S
C2            C3   1.399       .  A
C2            H7   1.085       .  S
C3            C4   1.395       .  A
C3         C1199   1.430       .  S
C4            C5   1.395       .  A
C4            H8   1.085       .  S
C5            C6   1.402       .  A
C5         C1196   1.432       .  S
C6            H9   1.084       .  S
C10          C11   1.405       .  A
C10          C15   1.403       .  A
C10        C1193   1.444       .  S
C11          C12   1.403       .  A
C11          H16   1.084       .  S
C12          C13   1.396       .  A
C12        C1197   1.436       .  S
C13          C14   1.395       .  A
C13          H17   1.085       .  S
C14          C15   1.403       .  A
C14        C1191   1.435       .  S
C15          H18   1.084       .  S
C19          C20   1.394       .  A
C19          C24   1.397       .  A
C19        C1189   1.428       .  S
C20          C21   1.395       .  A
C20          H25   1.085       .  S
C21          C22   1.404       .  A
C21        C1192   1.434       .  S
C22          C23   1.405       .  A
C22          H26   1.084       .  S
C23          C24   1.398       .  A
C23        C1187   1.437       .  S
C24          H27   1.084       .  S
C28          C29   1.406       .  A
C28          C33   1.403       .  A
C28        C1185   1.445       .  S
C29          C30   1.404       .  A
C29          H34   1.084       .  S
C30          C31   1.396       .  A
C30        C1188   1.437       .  S
C31          C32   1.395       .  A
C31          H35   1.085       .  S
C32          C33   1.402       .  A
C32        C1183   1.434       .  S
C33          H36   1.084       .  S
C37          C38   1.401       .  A
C37          C42   1.406       .  A
C37        C1181   1.444       .  S
C38          C39   1.401       .  A
C38          H43   1.084       .  S
C39          C40   1.395       .  A
C39        C1195   1.433       .  S
C40          C41   1.396       .  A
C40          H44   1.085       .  S
C41          C42   1.404       .  A
C41        C1179   1.436       .  S
C42          H45   1.084       .  S
C46          C47   1.397       .  A
C46          C51   1.394       .  A
C46        C1177   1.427       .  S
C47          C48   1.398       .  A
C47          H52   1.085       .  S
C48          C49   1.404       .  A
C48        C1180   1.436       .  S
C49          C50   1.403       .  A
C49          H53   1.084       .  S
C50          C51   1.396       .  A
C50        C1184   1.434       .  S
C51          H54   1.085       .  S
N55          N56   1.325       .  A
N55          C59   1.350       .  A
N55         Cu63   2.108       .  S
N56          C57   1.344       .  A
N56         Cu62   2.063       .  S
C57          C58   1.379       .  A
C57          H60   1.081       .  S
C58          C59   1.389       .  A
C58          C99   1.477       .  S
C59          H61   1.082       .  S
Cu62         N65   2.060       .  S
Cu63         N73   2.106       .  S
Cu64         N66   2.039       .  S
Cu64         N72   2.041       .  S
N65          N66   1.320       .  A
N65          C69   1.344   1_554  A
N66          C67   1.339       .  A
C67          C68   1.373   1_554  A
C67          H70   1.082       .  S
C68          C69   1.378       .  A
C68        C1175   1.423       .  S
C69          H71   1.082       .  S
N72          N73   1.322       .  A
N72          C76   1.340       .  A
N73          C74   1.351       .  A
C74          C75   1.388       .  A
C74          H77   1.082       .  S
C75          C76   1.372       .  A
C75        C1173   1.438       .  S
C76          H78   1.082       .  S
N79          N80   1.321       .  A
N79          C83   1.347       .  A
N79         Cu87   2.073       .  S
N80          C81   1.340       .  A
N80         Cu86   2.047       .  S
C81          C82   1.374       .  A
C81          H84   1.082       .  S
C82          C83   1.382       .  A
C82        C1172   1.431       .  S
C83          H85   1.082       .  S
Cu86         N89   2.047       .  S
Cu87         N97   2.074       .  S
Cu88         N90   2.103   1_554  S
Cu88         N96   2.105       .  S
N89          N90   1.322   1_554  A
N89          C93   1.341   1_554  A
N90          C91   1.352       .  A
C91          C92   1.388       .  A
C91          H94   1.082       .  S
C92          C93   1.373       .  A
C92        C1194   1.441       .  S
C93          H95   1.082       .  S
N96          N97   1.326       .  A
N96         C100   1.348       .  A
N97          C98   1.346       .  A
C98          C99   1.380       .  A
C98         H101   1.081       .  S
C99         C100   1.388       .  A
C100        H102   1.081       .  S
C103        C104   1.402       .  A
C103        C108   1.400       .  A
C103       C1170   1.440       .  S
C104        C105   1.402       .  A
C104        H109   1.084       .  S
C105        C106   1.400       .  A
C105       C1168   1.438       .  S
C106        C107   1.400       .  A
C106        H110   1.084       .  S
C107        C108   1.401       .  A
C107       C1165   1.437       .  S
C108        H111   1.084       .  S
C112        C113   1.401       .  A
C112        C117   1.395       .  A
C112       C1163   1.432       .  S
C113        C114   1.402       .  A
C113        H118   1.084       .  S
C114        C115   1.401       .  A
C114       C1167   1.438       .  S
C115        C116   1.400       .  A
C115        H119   1.084       .  S
C116        C117   1.395       .  A
C116       C1161   1.430       .  S
C117        H120   1.085       .  S
C121        C122   1.400       .  A
C121        C126   1.405       .  A
C121       C1159   1.440       .  S
C122        C123   1.399       .  A
C122        H127   1.084       .  S
C123        C124   1.395       .  A
C123       C1162   1.430       .  S
C124        C125   1.395       .  A
C124        H128   1.085       .  S
C125        C126   1.404       .  A
C125       C1158   1.435       .  S
C126        H129   1.084       .  S
C130        C131   1.397       .  A
C130        C135   1.405       .  A
C130       C1157   1.435       .  S
C131        C132   1.396       .  A
C131        H136   1.085       .  S
C132        C133   1.394       .  A
C132       C1176   1.426       .  S
C133        C134   1.396       .  A
C133        H137   1.085       .  S
C134        C135   1.404       .  A
C134       C1155   1.435       .  S
C135        H138   1.084       .  S
C139        C140   1.400       .  A
C139        C144   1.399       .  A
C139       C1154   1.436       .  S
C140        C141   1.399       .  A
C140        H145   1.084       .  S
C141        C142   1.403       .  A
C141       C1151   1.438       .  S
C142        C143   1.402       .  A
C142        H146   1.084       .  S
C143        C144   1.400       .  A
C143       C1166   1.437       .  S
C144        H147   1.085       .  S
C148        C149   1.403       .  A
C148        C153   1.405       .  A
C148       C1149   1.445       .  S
C149        C150   1.403       .  A
C149        H154   1.084       .  S
C150        C151   1.396       .  A
C150       C1156   1.435       .  S
C151        C152   1.396       .  A
C151        H155   1.085       .  S
C152        C153   1.403       .  A
C152       C1152   1.437       .  S
C153        H156   1.084       .  S
N157        N158   1.321       .  A
N157        C161   1.350       .  A
N157       Cu165   2.089       .  S
N158        C159   1.341       .  A
N158       Cu164   2.047       .  S
C159        C160   1.375       .  A
C159        H162   1.082       .  S
C160        C161   1.386       .  A
C160       C1145   1.438       .  S
C161        H163   1.082       .  S
Cu164       N167   2.046       .  S
Cu165       N175   2.090       .  S
Cu166       N168   2.092   1_554  S
Cu166       N174   2.095       .  S
N167        N168   1.322   1_554  A
N167        C171   1.340   1_554  A
N168        C169   1.350       .  A
C169        C170   1.386       .  A
C169        H172   1.081       .  S
C170        C171   1.372       .  A
C170       C1148   1.435       .  S
C171        H173   1.081       .  S
N174        N175   1.326       .  A
N174        C178   1.348       .  A
N175        C176   1.347       .  A
C176        C177   1.383       .  A
C176        H179   1.082       .  S
C177        C178   1.386       .  A
C177        C201   1.478       .  S
C178        H180   1.082       .  S
N181        N182   1.321       .  A
N181        C185   1.350       .  A
N181       Cu189   2.095       .  S
N182        C183   1.339       .  A
N182       Cu188   2.037       .  S
C183        C184   1.372       .  A
C183        H186   1.081       .  S
C184        C185   1.386       .  A
C184       C1144   1.435       .  S
C185        H187   1.082       .  S
Cu188       N191   2.036       .  S
Cu189       N199   2.097       .  S
Cu190       N192   2.077   1_554  S
Cu190       N198   2.080       .  S
N191        N192   1.321   1_554  A
N191        C195   1.339   1_554  A
N192        C193   1.347       .  A
C193        C194   1.382       .  A
C193        H196   1.082       .  S
C194        C195   1.371       .  A
C194       C1200   1.426       .  S
C195        H197   1.081   1_556  S
N198        N199   1.325       .  A
N198        C202   1.346       .  A
N199        C200   1.348       .  A
C200        C201   1.386       .  A
C200        H203   1.082       .  S
C201        C202   1.383       .  A
C202        H204   1.082       .  S
C205        C206   1.403       .  A
C205        C210   1.404       .  A
C205       C1139   1.443       .  S
C206        C207   1.402       .  A
C206        H211   1.084       .  S
C207        C208   1.398       .  A
C207       C1142   1.439       .  S
C208        C209   1.399       .  A
C208        H212   1.085       .  S
C209        C210   1.403       .  A
C209       C1137   1.439       .  S
C210        H213   1.084       .  S
C214        C215   1.400       .  A
C214        C219   1.405       .  A
C214       C1136   1.442       .  S
C215        C216   1.400       .  A
C215        H220   1.084       .  S
C216        C217   1.399       .  A
C216       C1134   1.435       .  S
C217        C218   1.399       .  A
C217        H221   1.084       .  S
C218        C219   1.404       .  A
C218       C1140   1.442       .  S
C219        H222   1.084       .  S
C223        C224   1.403       .  A
C223        C228   1.406       .  A
C223       C1131   1.448       .  S
C224        C225   1.403       .  A
C224        H229   1.084       .  S
C225        C226   1.399       .  A
C225       C1138   1.440       .  S
C226        C227   1.400       .  A
C226        H230   1.084       .  S
C227        C228   1.405       .  A
C227       C1129   1.443       .  S
C228        H231   1.084       .  S
C232        C233   1.402       .  A
C232        C237   1.403       .  A
C232       C1130   1.443       .  S
C233        C234   1.403       .  A
C233        H238   1.084       .  S
C234        C235   1.398       .  A
C234       C1147   1.439       .  S
C235        C236   1.399       .  A
C235        H239   1.085       .  S
C236        C237   1.402       .  A
C236       C1127   1.436       .  S
C237        H240   1.084       .  S
C241        C242   1.397       .  A
C241        C246   1.399       .  A
C241       C1125   1.431       .  S
C242        C243   1.397       .  A
C242        H247   1.085       .  S
C243        C244   1.401       .  A
C243       C1133   1.434       .  S
C244        C245   1.401       .  A
C244        H248   1.084       .  S
C245        C246   1.399       .  A
C245       C1123   1.436       .  S
C246        H249   1.084       .  S
C250        C251   1.400       .  A
C250        C255   1.402       .  A
C250       C1122   1.437       .  S
C251        C252   1.400       .  A
C251        H256   1.084       .  S
C252        C253   1.399       .  A
C252       C1128   1.435       .  S
C253        C254   1.399       .  A
C253        H257   1.084       .  S
C254        C255   1.401       .  A
C254       C1124   1.436       .  S
C255        H258   1.084       .  S
N259        N260   1.321       .  A
N259        C263   1.341       .  A
N259       Cu267   2.040       .  S
N260        C261   1.350   1_554  A
N260       Cu266   2.096       .  S
C261        C262   1.387       .  A
C261        H264   1.082       .  S
C262        C263   1.373   1_556  A
C262       C1119   1.437       .  S
C263        H265   1.081       .  S
Cu266       N269   2.098       .  S
Cu267       N277   2.039       .  S
Cu268       N270   2.084       .  S
Cu268       N276   2.081       .  S
N269        N270   1.326       .  A
N269        C273   1.348       .  A
N270        C271   1.347       .  A
C271        C272   1.383       .  A
C271        H274   1.082       .  S
C272        C273   1.386       .  A
C272        C296   1.479       .  S
C273        H275   1.082       .  S
N276        N277   1.321       .  A
N276        C280   1.348       .  A
N277        C278   1.339       .  A
C278        C279   1.372       .  A
C278        H281   1.081       .  S
C279        C280   1.383       .  A
C279       C1118   1.429       .  S
C280        H282   1.082       .  S
N283        N284   1.321       .  A
N283        C287   1.340       .  A
N283       Cu291   2.041       .  S
N284        C285   1.350   1_554  A
N284       Cu290   2.091       .  S
C285        C286   1.386       .  A
C285        H288   1.082       .  S
C286        C287   1.373   1_556  A
C286       C1160   1.436       .  S
C287        H289   1.082       .  S
Cu290       N293   2.092       .  S
Cu291       N301   2.041       .  S
Cu292       N294   2.094       .  S
Cu292       N300   2.091       .  S
N293        N294   1.326       .  A
N293        C297   1.347       .  A
N294        C295   1.348       .  A
C295        C296   1.385       .  A
C295        H298   1.082       .  S
C296        C297   1.384       .  A
C297        H299   1.082       .  S
N300        N301   1.321       .  A
N300        C304   1.350       .  A
N301        C302   1.340       .  A
C302        C303   1.372       .  A
C302        H305   1.081       .  S
C303        C304   1.386       .  A
C303       C1115   1.434       .  S
C304        H306   1.081       .  S
N307        N308   1.326   1_655  A
N307        C311   1.349       .  A
N307       Cu315   2.104       .  S
N308        C309   1.347       .  A
N308       Cu314   2.081       .  S
C309        C310   1.381       .  A
C309        H312   1.081       .  S
C310        C311   1.388   1_455  A
C310        C334   1.478       .  S
C311        H313   1.081       .  S
Cu314       N317   2.080       .  S
Cu315       N325   2.102       .  S
Cu316       N318   2.051   1_655  S
Cu316       N324   2.051       .  S
N317        N318   1.321       .  A
N317        C321   1.348       .  A
N318        C319   1.341       .  A
C319        C320   1.375       .  A
C319        H322   1.082       .  S
C320        C321   1.384       .  A
C320       C1113   1.435       .  S
C321        H323   1.082       .  S
N324        N325   1.322       .  A
N324        C328   1.341       .  A
N325        C326   1.352       .  A
C326        C327   1.388       .  A
C326        H329   1.082       .  S
C327        C328   1.374       .  A
C327       C1150   1.441       .  S
C328        H330   1.082       .  S
N331        N332   1.325   1_455  A
N331        C335   1.350       .  A
N331       Cu339   2.106       .  S
N332        C333   1.345       .  A
N332       Cu338   2.072       .  S
C333        C334   1.380   1_655  A
C333        H336   1.081       .  S
C334        C335   1.389       .  A
C335        H337   1.081       .  S
Cu338       N341   2.068       .  S
Cu339       N349   2.103       .  S
Cu340       N342   2.034   1_455  S
Cu340       N348   2.035       .  S
N341        N342   1.320       .  A
N341        C345   1.345       .  A
N342        C343   1.338       .  A
C343        C344   1.372       .  A
C343        H346   1.082       .  S
C344        C345   1.380       .  A
C344       C1190   1.424       .  S
C345        H347   1.082       .  S
N348        N349   1.322       .  A
N348        C352   1.339       .  A
N349        C350   1.351       .  A
C350        C351   1.387       .  A
C350        H353   1.082       .  S
C351        C352   1.371       .  A
C351       C1141   1.435       .  S
C352        H354   1.082       .  S
N355        N356   1.322       .  A
N355        C359   1.353       .  A
N355       Cu363   2.109       .  S
N356        C357   1.340       .  A
N356       Cu362   2.042       .  S
C357        C358   1.372       .  A
C357        H360   1.081       .  S
C358        C359   1.389       .  A
C358       C1111   1.440       .  S
C359        H361   1.082       .  S
Cu362       N365   2.043       .  S
Cu363       N373   2.111       .  S
Cu364       N366   2.081       .  S
Cu364       N372   2.083       .  S
N365        N366   1.320       .  A
N365        C369   1.340       .  A
N366        C367   1.348   1_545  A
C367        C368   1.384       .  A
C367        H370   1.082       .  S
C368        C369   1.374   1_565  A
C368       C1121   1.433       .  S
C369        H371   1.081       .  S
N372        N373   1.326       .  A
N372        C376   1.346       .  A
N373        C374   1.350       .  A
C374        C375   1.389       .  A
C374        H377   1.082       .  S
C375        C376   1.382       .  A
C375        C382   1.482       .  S
C376        H378   1.082       .  S
N379        N380   1.326       .  A
N379        C383   1.350       .  A
N379       Cu387   2.110       .  S
N380        C381   1.347       .  A
N380       Cu386   2.080       .  S
C381        C382   1.382       .  A
C381        H384   1.082       .  S
C382        C383   1.389       .  A
C383        H385   1.082       .  S
Cu386       N389   2.077       .  S
Cu387       N397   2.108       .  S
Cu388       N390   2.039       .  S
Cu388       N396   2.040       .  S
N389        N390   1.320       .  A
N389        C393   1.347       .  A
N390        C391   1.339       .  A
C391        C392   1.372       .  A
C391        H394   1.081       .  S
C392        C393   1.382       .  A
C392       C1164   1.429       .  S
C393        H395   1.082       .  S
N396        N397   1.322       .  A
N396        C400   1.340   1_545  A
N397        C398   1.352   1_545  A
C398        C399   1.389       .  A
C398        H401   1.082       .  S
C399        C400   1.372       .  A
C399       C1182   1.440       .  S
C400        H402   1.081   1_565  S
N403        N404   1.326       .  A
N403        C407   1.352       .  A
N403       Cu411   2.126       .  S
N404        C405   1.345       .  A
N404       Cu410   2.070       .  S
C405        C406   1.379       .  A
C405        H408   1.081       .  S
C406        C407   1.393       .  A
C406        C430   1.483       .  S
C407        H409   1.082       .  S
Cu410       N413   2.068       .  S
Cu411       N421   2.123       .  S
Cu412       N414   2.042       .  S
Cu412       N420   2.043       .  S
N413        N414   1.320       .  A
N413        C417   1.346   1_554  A
N414        C415   1.340       .  A
C415        C416   1.374   1_554  A
C415        H418   1.082       .  S
C416        C417   1.381       .  A
C416       C1109   1.429       .  S
C417        H419   1.082       .  S
N420        N421   1.323       .  A
N420        C424   1.341       .  A
N421        C422   1.355       .  A
C422        C423   1.392       .  A
C422        H425   1.082       .  S
C423        C424   1.372       .  A
C423       C1107   1.445       .  S
C424        H426   1.082       .  S
N427        N428   1.326       .  A
N427        C431   1.352       .  A
N427       Cu435   2.125       .  S
N428        C429   1.345       .  A
N428       Cu434   2.068       .  S
C429        C430   1.379       .  A
C429        H432   1.081       .  S
C430        C431   1.393       .  A
C431        H433   1.082       .  S
Cu434       N437   2.065       .  S
Cu435       N445   2.123   1_554  S
Cu436       N438   2.042       .  S
Cu436       N444   2.042       .  S
N437        N438   1.320       .  A
N437        C441   1.345       .  A
N438        C439   1.340       .  A
C439        C440   1.374       .  A
C439        H442   1.082       .  S
C440        C441   1.380       .  A
C440       C1105   1.427       .  S
C441        H443   1.082       .  S
N444        N445   1.323   1_554  A
N444        C448   1.341   1_554  A
N445        C446   1.355       .  A
C446        C447   1.392       .  A
C446        H449   1.082       .  S
C447        C448   1.372       .  A
C447       C1132   1.445       .  S
C448        H450   1.082       .  S
C451        C452   1.407       .  A
C451        C456   1.401       .  A
C451       C1103   1.448       .  S
C452        C453   1.406       .  A
C452        H457   1.084       .  S
C453        C454   1.403       .  A
C453       C1101   1.447       .  S
C454        C455   1.402       .  A
C454        H458   1.084       .  S
C455        C456   1.401       .  A
C455       C1100   1.441       .  S
C456        H459   1.084       .  S
C460        C461   1.406       .  A
C460        C465   1.399       .  A
C460       C1112   1.444       .  S
C461        C462   1.405       .  A
C461        H466   1.084       .  S
C462        C463   1.403       .  A
C462       C1102   1.447       .  S
C463        C464   1.402       .  A
C463        H467   1.084       .  S
C464        C465   1.400       .  A
C464       C1097   1.438       .  S
C465        H468   1.084       .  S
C469        C470   1.400       .  A
C469        C474   1.402       .  A
C469       C1096   1.440       .  S
C470        C471   1.401       .  A
C470        H475   1.084       .  S
C471        C472   1.402       .  A
C471       C1099   1.440       .  S
C472        C473   1.402       .  A
C472        H476   1.084       .  S
C473        C474   1.401       .  A
C473       C1094   1.439       .  S
C474        H477   1.084       .  S
C478        C479   1.403       .  A
C478        C483   1.400       .  A
C478       C1114   1.439       .  S
C479        C480   1.402       .  A
C479        H484   1.084       .  S
C480        C481   1.399       .  A
C480       C1093   1.439       .  S
C481        C482   1.399       .  A
C481        H485   1.084       .  S
C482        C483   1.401       .  A
C482       C1091   1.435       .  S
C483        H486   1.084       .  S
C487        C488   1.400       .  A
C487        C492   1.403       .  A
C487       C1120   1.441       .  S
C488        C489   1.401       .  A
C488        H493   1.084       .  S
C489        C490   1.399       .  A
C489       C1098   1.438       .  S
C490        C491   1.400       .  A
C490        H494   1.084       .  S
C491        C492   1.403       .  A
C491       C1090   1.439       .  S
C492        H495   1.084       .  S
C496        C497   1.397       .  A
C496        C501   1.400       .  A
C496       C1110   1.433       .  S
C497        C498   1.398       .  A
C497        H502   1.084       .  S
C498        C499   1.402       .  A
C498       C1092   1.435       .  S
C499        C500   1.402       .  A
C499        H503   1.084       .  S
C500        C501   1.400       .  A
C500       C1089   1.439       .  S
C501        H504   1.084       .  S
N505        N506   1.326       .  A
N505        C509   1.352       .  A
N505       Cu513   2.130       .  S
N506        C507   1.344       .  A
N506       Cu512   2.060       .  S
C507        C508   1.377       .  A
C507        H510   1.082       .  S
C508        C509   1.394       .  A
C508        C549   1.482       .  S
C509        H511   1.082       .  S
Cu512       N515   2.057       .  S
Cu513       N523   2.128   1_545  S
Cu514       N516   2.037       .  S
Cu514       N522   2.038       .  S
N515        N516   1.319       .  A
N515        C519   1.344       .  A
N516        C517   1.339       .  A
C517        C518   1.373       .  A
C517        H520   1.082       .  S
C518        C519   1.378       .  A
C518       C1086   1.423       .  S
C519        H521   1.082       .  S
N522        N523   1.323   1_545  A
N522        C526   1.340   1_545  A
N523        C524   1.355       .  A
C524        C525   1.393       .  A
C524        H527   1.082       .  S
C525        C526   1.371       .  A
C525       C1088   1.445       .  S
C526        H528   1.081   1_565  S
N529        N530   1.323       .  A
N529        C533   1.355       .  A
N529       Cu537   2.124       .  S
N530        C531   1.340       .  A
N530       Cu536   2.039       .  S
C531        C532   1.371       .  A
C531        H534   1.081       .  S
C532        C533   1.393       .  A
C532       C1104   1.444       .  S
C533        H535   1.082       .  S
Cu536       N539   2.039       .  S
Cu537       N547   2.127       .  S
Cu538       N540   2.065       .  S
Cu538       N546   2.066       .  S
N539        N540   1.319       .  A
N539        C543   1.340       .  A
N540        C541   1.345   1_545  A
C541        C542   1.381       .  A
C541        H544   1.082       .  S
C542        C543   1.374   1_565  A
C542       C1126   1.427       .  S
C543        H545   1.082       .  S
N546        N547   1.326       .  A
N546        C550   1.345       .  A
N547        C548   1.352       .  A
C548        C549   1.393       .  A
C548        H551   1.082       .  S
C549        C550   1.378       .  A
C550        H552   1.082       .  S
C553        C554   1.405       .  A
C553        C558   1.399       .  A
C553       C1082   1.442       .  S
C554        C555   1.406       .  A
C554        H559   1.084       .  S
C555        C556   1.402       .  A
C555       C1083   1.445       .  S
C556        C557   1.402       .  A
C556        H560   1.084       .  S
C557        C558   1.398       .  A
C557       C1080   1.437       .  S
C558        H561   1.085       .  S
C562        C563   1.398       .  A
C562        C567   1.403       .  A
C562       C1077   1.439       .  S
C563        C564   1.399       .  A
C563        H568   1.085       .  S
C564        C565   1.403       .  A
C564       C1075   1.438       .  S
C565        C566   1.404       .  A
C565        H569   1.084       .  S
C566        C567   1.403       .  A
C566       C1081   1.442       .  S
C567        H570   1.084       .  S
C571        C572   1.397       .  A
C571        C576   1.398       .  A
C571       C1106   1.431       .  S
C572        C573   1.398       .  A
C572        H577   1.085       .  S
C573        C574   1.403       .  A
C573       C1079   1.436       .  S
C574        C575   1.403       .  A
C574        H578   1.084       .  S
C575        C576   1.398       .  A
C575       C1073   1.437       .  S
C576        H579   1.084       .  S
C580        C581   1.404       .  A
C580        C585   1.403       .  A
C580       C1146   1.442       .  S
C581        C582   1.402       .  A
C581        H586   1.084       .  S
C582        C583   1.397       .  A
C582       C1074   1.436       .  S
C583        C584   1.396       .  A
C583        H587   1.085       .  S
C584        C585   1.402       .  A
C584       C1072   1.436       .  S
C585        H588   1.084       .  S
C589        C590   1.402       .  A
C589        C594   1.408       .  A
C589       C1087   1.449       .  S
C590        C591   1.402       .  A
C590        H595   1.084       .  S
C591        C592   1.398       .  A
C591       C1076   1.438       .  S
C592        C593   1.399       .  A
C592        H596   1.085       .  S
C593        C594   1.407       .  A
C593       C1069   1.444       .  S
C594        H597   1.084       .  S
C598        C599   1.396       .  A
C598        C603   1.400       .  A
C598       C1068   1.433       .  S
C599        C600   1.397       .  A
C599        H604   1.085       .  S
C600        C601   1.405       .  A
C600       C1071   1.436       .  S
C601        C602   1.405       .  A
C601        H605   1.084       .  S
C602        C603   1.401       .  A
C602       C1070   1.443       .  S
C603        H606   1.085       .  S
N607        N608   1.321       .  A
N607        C611   1.341       .  A
N607       Cu615   2.048       .  S
N608        C609   1.350       .  A
N608       Cu614   2.093       .  S
C609        C610   1.386       .  A
C609        H612   1.082       .  S
C610        C611   1.374       .  A
C610       C1063   1.439       .  S
C611        H613   1.082       .  S
Cu614       N617   2.095       .  S
Cu615       N625   2.048   1_455  S
Cu616       N618   2.096       .  S
Cu616       N624   2.093       .  S
N617        N618   1.326   1_455  A
N617        C621   1.348       .  A
N618        C619   1.348       .  A
C619        C620   1.386   1_655  A
C619        H622   1.081       .  S
C620        C621   1.385       .  A
C620        C644   1.480       .  S
C621        H623   1.081       .  S
N624        N625   1.322       .  A
N624        C628   1.350       .  A
N625        C626   1.341       .  A
C626        C627   1.373       .  A
C626        H629   1.082       .  S
C627        C628   1.386       .  A
C627       C1066   1.437       .  S
C628        H630   1.082       .  S
N631        N632   1.321       .  A
N631        C635   1.341       .  A
N631       Cu639   2.046   1_655  S
N632        C633   1.348       .  A
N632       Cu638   2.084       .  S
C633        C634   1.383       .  A
C633        H636   1.082       .  S
C634        C635   1.374       .  A
C634       C1153   1.433       .  S
C635        H637   1.082       .  S
Cu638       N641   2.087       .  S
Cu639       N649   2.047       .  S
Cu640       N642   2.097       .  S
Cu640       N648   2.094       .  S
N641        N642   1.325   1_655  A
N641        C645   1.347       .  A
N642        C643   1.349       .  A
C643        C644   1.386       .  A
C643        H646   1.081       .  S
C644        C645   1.384   1_455  A
C645        H647   1.081       .  S
N648        N649   1.322       .  A
N648        C652   1.350       .  A
N649        C650   1.341       .  A
C650        C651   1.374       .  A
C650        H653   1.081       .  S
C651        C652   1.385       .  A
C651       C1095   1.437       .  S
C652        H654   1.082       .  S
C655        C656   1.403       .  A
C655        C660   1.398       .  A
C655       C1116   1.438       .  S
C656        C657   1.403       .  A
C656        H661   1.084       .  S
C657        C658   1.401       .  A
C657       C1061   1.440       .  S
C658        C659   1.400       .  A
C658        H662   1.084       .  S
C659        C660   1.398       .  A
C659       C1059   1.433       .  S
C660        H663   1.085       .  S
C664        C665   1.403       .  A
C664        C669   1.400       .  A
C664       C1174   1.442       .  S
C665        C666   1.403       .  A
C665        H670   1.084       .  S
C666        C667   1.401       .  A
C666       C1062   1.441       .  S
C667        C668   1.401       .  A
C667        H671   1.084       .  S
C668        C669   1.401       .  A
C668       C1057   1.439       .  S
C669        H672   1.084       .  S
C673        C674   1.398       .  A
C673        C678   1.400       .  A
C673       C1055   1.434       .  S
C674        C675   1.399       .  A
C674        H679   1.084       .  S
C675        C676   1.399       .  A
C675       C1060   1.433       .  S
C676        C677   1.399       .  A
C676        H680   1.084       .  S
C677        C678   1.400       .  A
C677       C1053   1.435       .  S
C678        H681   1.084       .  S
C682        C683   1.400       .  A
C682        C687   1.400       .  A
C682       C1051   1.435       .  S
C683        C684   1.399       .  A
C683        H688   1.084       .  S
C684        C685   1.399       .  A
C684       C1054   1.435       .  S
C685        C686   1.400       .  A
C685        H689   1.084       .  S
C686        C687   1.401       .  A
C686       C1049   1.436       .  S
C687        H690   1.084       .  S
C691        C692   1.399       .  A
C691        C696   1.404       .  A
C691       C1065   1.440       .  S
C692        C693   1.399       .  A
C692        H697   1.085       .  S
C693        C694   1.402       .  A
C693       C1050   1.437       .  S
C694        C695   1.402       .  A
C694        H698   1.084       .  S
C695        C696   1.404       .  A
C695       C1047   1.444       .  S
C696        H699   1.084       .  S
C700        C701   1.400       .  A
C700        C705   1.405       .  A
C700       C1045   1.443       .  S
C701        C702   1.400       .  A
C701        H706   1.085       .  S
C702        C703   1.401       .  A
C702       C1058   1.439       .  S
C703        C704   1.402       .  A
C703        H707   1.084       .  S
C704        C705   1.405       .  A
C704       C1048   1.444       .  S
C705        H708   1.084       .  S
N709        N710   1.321       .  A
N709        C713   1.348       .  A
N709       Cu717   2.083       .  S
N710        C711   1.339       .  A
N710       Cu716   2.039       .  S
C711        C712   1.372       .  A
C711        H714   1.082       .  S
C712        C713   1.384       .  A
C712       C1043   1.431       .  S
C713        H715   1.082       .  S
Cu716       N719   2.039   1_455  S
Cu717       N727   2.086       .  S
Cu718       N720   2.109       .  S
Cu718       N726   2.112       .  S
N719        N720   1.322       .  A
N719        C723   1.340       .  A
N720        C721   1.352       .  A
C721        C722   1.389       .  A
C721        H724   1.082       .  S
C722        C723   1.372       .  A
C722       C1046   1.440       .  S
C723        H725   1.082       .  S
N726        N727   1.326   1_655  A
N726        C730   1.351       .  A
N727        C728   1.347       .  A
C728        C729   1.383       .  A
C728        H731   1.081       .  S
C729        C730   1.389   1_455  A
C729        C753   1.484       .  S
C730        H732   1.081       .  S
N733        N734   1.322       .  A
N733        C737   1.353       .  A
N733       Cu741   2.108       .  S
N734        C735   1.340       .  A
N734       Cu740   2.043       .  S
C735        C736   1.373       .  A
C735        H738   1.082       .  S
C736        C737   1.390       .  A
C736       C1084   1.442       .  S
C737        H739   1.082       .  S
Cu740       N743   2.043   1_455  S
Cu741       N751   2.111       .  S
Cu742       N744   2.091       .  S
Cu742       N750   2.093       .  S
N743        N744   1.321       .  A
N743        C747   1.340       .  A
N744        C745   1.350       .  A
C745        C746   1.386       .  A
C745        H748   1.082       .  S
C746        C747   1.373       .  A
C746       C1041   1.437       .  S
C747        H749   1.082       .  S
N750        N751   1.327   1_655  A
N750        C754   1.349       .  A
N751        C752   1.350       .  A
C752        C753   1.388       .  A
C752        H755   1.081       .  S
C753        C754   1.384   1_455  A
C754        H756   1.081       .  S
N757        N758   1.321       .  A
N757        C761   1.347   1_545  A
N757       Cu765   2.076       .  S
N758        C759   1.339   1_545  A
N758       Cu764   2.044       .  S
C759        C760   1.373       .  A
C759        H762   1.081   1_565  S
C760        C761   1.382       .  A
C760       C1067   1.430       .  S
C761        H763   1.082       .  S
Cu764       N767   2.045       .  S
Cu765       N775   2.078       .  S
Cu766       N768   2.099       .  S
Cu766       N774   2.100       .  S
N767        N768   1.321       .  A
N767        C771   1.341       .  A
N768        C769   1.351       .  A
C769        C770   1.388       .  A
C769        H772   1.082       .  S
C770        C771   1.374       .  A
C770       C1039   1.440       .  S
C771        H773   1.081       .  S
N774        N775   1.326       .  A
N774        C778   1.348       .  A
N775        C776   1.346       .  A
C776        C777   1.382       .  A
C776        H779   1.082       .  S
C777        C778   1.386       .  A
C777        C794   1.476       .  S
C778        H780   1.082       .  S
N781        N782   1.322   1_545  A
N781        C785   1.340   1_545  A
N781       Cu789   2.042       .  S
N782        C783   1.348       .  A
N782       Cu788   2.087   1_565  S
C783        C784   1.383       .  A
C783        H786   1.082       .  S
C784        C785   1.372       .  A
C784       C1037   1.431       .  S
C785        H787   1.081       .  S
Cu788       N791   2.090       .  S
Cu789       N799   2.043       .  S
Cu790       N792   2.080       .  S
Cu790       N798   2.078       .  S
N791        N792   1.325       .  A
N791        C795   1.347       .  A
N792        C793   1.346       .  A
C793        C794   1.382       .  A
C793        H796   1.082       .  S
C794        C795   1.385       .  A
C795        H797   1.082       .  S
N798        N799   1.321       .  A
N798        C802   1.347       .  A
N799        C800   1.340       .  A
C800        C801   1.374       .  A
C800        H803   1.081       .  S
C801        C802   1.382       .  A
C801       C1056   1.431       .  S
C802        H804   1.082       .  S
C805        C806   1.408       .  A
C805        C810   1.402       .  A
C805       C1108   1.449       .  S
C806        C807   1.407       .  A
C806        H811   1.084       .  S
C807        C808   1.398       .  A
C807       C1035   1.443       .  S
C808        C809   1.397       .  A
C808        H812   1.085       .  S
C809        C810   1.402       .  A
C809       C1033   1.437       .  S
C810        H813   1.084       .  S
C814        C815   1.401       .  A
C814        C819   1.406       .  A
C814       C1036   1.443       .  S
C815        C816   1.400       .  A
C815        H820   1.085       .  S
C816        C817   1.394       .  A
C816       C1117   1.432       .  S
C817        C818   1.396       .  A
C817        H821   1.085       .  S
C818        C819   1.405       .  A
C818       C1032   1.435       .  S
C819        H822   1.084       .  S
C823        C824   1.403       .  A
C823        C828   1.405       .  A
C823       C1040   1.444       .  S
C824        C825   1.403       .  A
C824        H829   1.084       .  S
C825        C826   1.394       .  A
C825       C1031   1.435       .  S
C826        C827   1.395       .  A
C826        H830   1.085       .  S
C827        C828   1.404       .  A
C827       C1029   1.436       .  S
C828        H831   1.084       .  S
C832        C833   1.397       .  A
C832        C837   1.404       .  A
C832       C1030   1.436       .  S
C833        C834   1.396       .  A
C833        H838   1.085       .  S
C834        C835   1.394       .  A
C834       C1085   1.426       .  S
C835        C836   1.396       .  A
C835        H839   1.085       .  S
C836        C837   1.404       .  A
C836       C1027   1.434       .  S
C837        H840   1.084       .  S
C841        C842   1.397       .  A
C841        C846   1.400       .  A
C841       C1044   1.434       .  S
C842        C843   1.398       .  A
C842        H847   1.085       .  S
C843        C844   1.402       .  A
C843       C1034   1.436       .  S
C844        C845   1.403       .  A
C844        H848   1.084       .  S
C845        C846   1.400       .  A
C845       C1025   1.438       .  S
C846        H849   1.084       .  S
C850        C851   1.402       .  A
C850        C855   1.404       .  A
C850       C1064   1.442       .  S
C851        C852   1.402       .  A
C851        H856   1.084       .  S
C852        C853   1.397       .  A
C852       C1028   1.435       .  S
C853        C854   1.397       .  A
C853        H857   1.085       .  S
C854        C855   1.403       .  A
C854       C1026   1.438       .  S
C855        H858   1.084       .  S
N859        N860   1.326   1_455  A
N859        C863   1.349       .  A
N859       Cu867   2.102       .  S
N860        C861   1.348       .  A
N860       Cu866   2.090       .  S
C861        C862   1.384   1_655  A
C861        H864   1.081       .  S
C862        C863   1.387       .  A
C862        C896   1.482       .  S
C863        H865   1.081       .  S
Cu866       N869   2.086       .  S
Cu867       N877   2.099       .  S
Cu868       N870   2.036   1_455  S
Cu868       N876   2.037       .  S
N869        N870   1.321       .  A
N869        C873   1.349       .  A
N870        C871   1.339       .  A
C871        C872   1.372       .  A
C871        H874   1.081       .  S
C872        C873   1.384       .  A
C872       C1024   1.431       .  S
C873        H875   1.082       .  S
N876        N877   1.321       .  A
N876        C880   1.340       .  A
N877        C878   1.351       .  A
C878        C879   1.387       .  A
C878        H881   1.082       .  S
C879        C880   1.372       .  A
C879       C1078   1.435       .  S
C880        H882   1.082       .  S
N883        N884   1.321       .  A
N883        C887   1.341       .  A
N883       Cu891   2.048       .  S
N884        C885   1.351       .  A
N884       Cu890   2.094       .  S
C885        C886   1.387       .  A
C885        H888   1.082       .  S
C886        C887   1.374       .  A
C886       C1135   1.438       .  S
C887        H889   1.082       .  S
Cu890       N893   2.095       .  S
Cu891       N901   2.048   1_455  S
Cu892       N894   2.103       .  S
Cu892       N900   2.101       .  S
N893        N894   1.326   1_455  A
N893        C897   1.349       .  A
N894        C895   1.349       .  A
C895        C896   1.387   1_655  A
C895        H898   1.081       .  S
C896        C897   1.385       .  A
C897        H899   1.081       .  S
N900        N901   1.322       .  A
N900        C904   1.352       .  A
N901        C902   1.341       .  A
C902        C903   1.374       .  A
C902        H905   1.082       .  S
C903        C904   1.388       .  A
C903       C1186   1.441       .  S
C904        H906   1.082       .  S
N907        N908   1.323   1_565  A
N907        C911   1.352       .  A
N907       Cu915   2.106   1_565  S
N908        C909   1.341   1_545  A
N908       Cu914   2.051       .  S
C909        C910   1.374       .  A
C909        H912   1.082   1_565  S
C910        C911   1.388       .  A
C910       C1022   1.442       .  S
C911        H913   1.082       .  S
Cu914       N917   2.051       .  S
Cu915       N925   2.107       .  S
Cu916       N918   2.070       .  S
Cu916       N924   2.071       .  S
N917        N918   1.320       .  A
N917        C921   1.341       .  A
N918        C919   1.346       .  A
C919        C920   1.381       .  A
C919        H922   1.082       .  S
C920        C921   1.375       .  A
C920       C1052   1.432       .  S
C921        H923   1.082       .  S
N924        N925   1.325       .  A
N924        C928   1.345       .  A
N925        C926   1.349       .  A
C926        C927   1.389       .  A
C926        H929   1.082       .  S
C927        C928   1.379       .  A
C927        C944   1.477       .  S
C928        H930   1.082       .  S
N931        N932   1.320       .  A
N931        C935   1.339       .  A
N931       Cu939   2.039       .  S
N932        C933   1.345   1_545  A
N932       Cu938   2.065       .  S
C933        C934   1.379       .  A
C933        H936   1.082       .  S
C934        C935   1.372   1_565  A
C934       C1178   1.424       .  S
C935        H937   1.082       .  S
Cu938       N941   2.068       .  S
Cu939       N949   2.040       .  S
Cu940       N942   2.104       .  S
Cu940       N948   2.101       .  S
N941        N942   1.325       .  A
N941        C945   1.345       .  A
N942        C943   1.348       .  A
C943        C944   1.388       .  A
C943        H946   1.082       .  S
C944        C945   1.380       .  A
C945        H947   1.082       .  S
N948        N949   1.322       .  A
N948        C952   1.351       .  A
N949        C950   1.340       .  A
C950        C951   1.372       .  A
C950        H953   1.081       .  S
C951        C952   1.387       .  A
C951       C1169   1.436       .  S
C952        H954   1.082       .  S
C955        C956   1.402       .  A
C955        C960   1.399       .  A
C955       C1143   1.438       .  S
C956        C957   1.401       .  A
C956        H961   1.084       .  S
C957        C958   1.400       .  A
C957       C1019   1.437       .  S
C958        C959   1.399       .  A
C958        H962   1.084       .  S
C959        C960   1.400       .  A
C959       C1017   1.435       .  S
C960        H963   1.084       .  S
C964        C965   1.401       .  A
C964        C969   1.399       .  A
C964       C1171   1.435       .  S
C965        C966   1.400       .  A
C965        H970   1.084       .  S
C966        C967   1.400       .  A
C966       C1020   1.437       .  S
C967        C968   1.399       .  A
C967        H971   1.084       .  S
C968        C969   1.399       .  A
C968       C1015   1.434       .  S
C969        H972   1.084       .  S
C973        C974   1.399       .  A
C973        C978   1.404       .  A
C973       C1042   1.440       .  S
C974        C975   1.398       .  A
C974        H979   1.085       .  S
C975        C976   1.399       .  A
C975       C1016   1.434       .  S
C976        C977   1.400       .  A
C976        H980   1.084       .  S
C977        C978   1.404       .  A
C977       C1013   1.441       .  S
C978        H981   1.084       .  S
C982        C983   1.401       .  A
C982        C987   1.396       .  A
C982       C1023   1.434       .  S
C983        C984   1.402       .  A
C983        H988   1.084       .  S
C984        C985   1.404       .  A
C984       C1014   1.442       .  S
C985        C986   1.404       .  A
C985        H989   1.084       .  S
C986        C987   1.396       .  A
C986       C1012   1.436       .  S
C987        H990   1.085       .  S
C991        C992   1.399       .  A
C991        C996   1.402       .  A
C991       C1018   1.436       .  S
C992        C993   1.398       .  A
C992        H997   1.084       .  S
C993        C994   1.400       .  A
C993       C1038   1.435       .  S
C994        C995   1.399       .  A
C994        H998   1.085       .  S
C995        C996   1.403       .  A
C995       C1009   1.438       .  S
C996        H999   1.084       .  S
C1000      C1001   1.405       .  A
C1000      C1005   1.404       .  A
C1000      C1021   1.445       .  S
C1001      C1002   1.403       .  A
C1001      H1006   1.084       .  S
C1002      C1003   1.396       .  A
C1002      C1010   1.438       .  S
C1003      C1004   1.396       .  A
C1003      H1007   1.085       .  S
C1004      C1005   1.403       .  A
C1004      C1011   1.436       .  S
C1005      H1008   1.084       .  S
C1009      C1010   1.205       .  T
C1011      C1012   1.204       .  T
C1013      C1014   1.207       .  T
C1015      C1016   1.203       .  T
C1017      C1018   1.203       .  T
C1019      C1020   1.204       .  T
C1021      C1022   1.209       .  T
C1023      C1024   1.202       .  T
C1025      C1026   1.205       .  T
C1027      C1028   1.203       .  T
C1029      C1030   1.204       .  T
C1031      C1032   1.203       .  T
C1033      C1034   1.204       .  T
C1035      C1036   1.208       .  T
C1037      C1038   1.203       .  T
C1039      C1040   1.208       .  T
C1041      C1042   1.206       .  T
C1043      C1044   1.202       .  T
C1045      C1046   1.208       .  T
C1047      C1048   1.208       .  T
C1049      C1050   1.204       .  T
C1051      C1052   1.203       .  T
C1053      C1054   1.203       .  T
C1055      C1056   1.203       .  T
C1057      C1058   1.205       .  T
C1059      C1060   1.202       .  T
C1061      C1062   1.206       .  T
C1063      C1064   1.207       .  T
C1065      C1066   1.206       .  T
C1067      C1068   1.202       .  T
C1069      C1070   1.208       .  T
C1071      C1072   1.204       .  T
C1073      C1074   1.204       .  T
C1075      C1076   1.205       .  T
C1077      C1078   1.205       .  T
C1079      C1080   1.204       .  T
C1081      C1082   1.207       .  T
C1083      C1084   1.209       .  T
C1085      C1086   1.198       .  T
C1087      C1088   1.211       .  T
C1089      C1090   1.205       .  T
C1091      C1092   1.203       .  T
C1093      C1094   1.206       .  T
C1095      C1096   1.206       .  T
C1097      C1098   1.205       .  T
C1099      C1100   1.206       .  T
C1101      C1102   1.210       .  T
C1103      C1104   1.211       .  T
C1105      C1106   1.200       .  T
C1107      C1108   1.211       .  T
C1109      C1110   1.201       .  T
C1111      C1112   1.208       .  T
C1113      C1114   1.205       .  T
C1115      C1116   1.205       .  T
C1117      C1118   1.201       .  T
C1119      C1120   1.206       .  T
C1121      C1122   1.204       .  T
C1123      C1124   1.204       .  T
C1125      C1126   1.200       .  T
C1127      C1128   1.203       .  T
C1129      C1130   1.208       .  T
C1131      C1132   1.211       .  T
C1133      C1134   1.203       .  T
C1135      C1136   1.207       .  T
C1137      C1138   1.206       .  T
C1139      C1140   1.208       .  T
C1141      C1142   1.205       .  T
C1143      C1144   1.205       .  T
C1145      C1146   1.207       .  T
C1147      C1148   1.205       .  T
C1149      C1150   1.209       .  T
C1151      C1152   1.205       .  T
C1153      C1154   1.203       .  T
C1155      C1156   1.203       .  T
C1157      C1158   1.203       .  T
C1159      C1160   1.206       .  T
C1161      C1162   1.200       .  T
C1163      C1164   1.201       .  T
C1165      C1166   1.204       .  T
C1167      C1168   1.205       .  T
C1169      C1170   1.206       .  T
C1171      C1172   1.203       .  T
C1173      C1174   1.207       .  T
C1175      C1176   1.198       .  T
C1177      C1178   1.198       .  T
C1179      C1180   1.204       .  T
C1181      C1182   1.208       .  T
C1183      C1184   1.202       .  T
C1185      C1186   1.209       .  T
C1187      C1188   1.205       .  T
C1189      C1190   1.199       .  T
C1191      C1192   1.203       .  T
C1193      C1194   1.208       .  T
C1195      C1196   1.202       .  T
C1197      C1198   1.204       .  T
C1199      C1200   1.200       .  T
