geometry optimzed in LAMMPS
_audit_creation_date              2020-11-30 
_audit_creation_method            'lammps2cif' 
_symmetry_space_group_name_H-M    'P1' 
_symmetry_Int_Tables_number       1 
_symmetry_cell_setting            triclinic 
loop_ 
_symmetry_equiv_pos_as_xyz 
  x,y,z 
_cell_length_a                    39.3474766 
_cell_length_b                    39.46207376765823 
_cell_length_c                    68.92734155368038 
_cell_angle_alpha                 90.05884463913094 
_cell_angle_beta                  90.01074246284732 
_cell_angle_gamma                 90.0432207481894 
loop_ 
_atom_site_label 
_atom_site_type_symbol 
_atom_site_fract_x 
_atom_site_fract_y 
_atom_site_fract_z 
_atom_site_charge 
N1          N  0.71539960  0.95350335  0.35435624    -0.26900
N2          N  0.74592472  0.94254188  0.35933339    -0.34800
C3          C  0.75494477  0.91737177  0.34718729     0.01400
C4          C  0.72879232  0.91223321  0.33397555     0.07500
C5          C  0.70409872  0.93551942  0.33907892    -0.05600
H6          H  0.77854882  0.90349884  0.34815582     0.08100
H7          H  0.67987547  0.93953094  0.33202552     0.09300
Cu8        Cu  0.77375638  0.96203252  0.38263056     0.44200
Cu9        Cu  0.69059864  0.99308458  0.36793859     0.42000
Cu10       Cu  0.73323242  0.03130635  0.40853384     0.43900
N11         N  0.79489520  0.98584973  0.40688740    -0.34300
N12         N  0.77964634  0.01070316  0.41635966    -0.28500
C13         C  0.79940246  0.02065350  0.43121999    -0.04600
C14         C  0.82870131  0.00122174  0.43123192     0.07600
C15         C  0.82497683  0.97948754  0.41549608     0.01400
H16         H  0.79314982  0.04125803  0.44094036     0.09000
H17         H  0.84274425  0.96034147  0.41069331     0.08100
N18         N  0.68742969  0.04875475  0.39764912    -0.35700
N19         N  0.67176871  0.03450629  0.38278728    -0.27900
C20         C  0.64313285  0.05174253  0.37897247    -0.03200
C21         C  0.64046908  0.07817731  0.39213389     0.05500
C22         C  0.66917713  0.07555203  0.40369721     0.03600
H23         H  0.62612754  0.04587085  0.36710867     0.08700
H24         H  0.67631199  0.09183944  0.41565912     0.07500
O25         O  0.69564084  0.79619033  0.22606043    -0.72600
O26         O  0.69684460  0.72609067  0.26734441    -0.73500
O27         O  0.69566630  0.79787641  0.26716785    -0.62200
O28         O  0.69814965  0.72460364  0.22605274    -0.69800
O29         O  0.75438688  0.72620263  0.22660377    -0.70100
O30         O  0.75193811  0.79860154  0.26715003    -0.61400
O31         O  0.75311281  0.72635182  0.26804206    -0.73900
O32         O  0.75186854  0.79814219  0.22590328    -0.72700
Cu33       Cu  0.69467642  0.76109102  0.24666730     1.04600
Cu34       Cu  0.75481269  0.76234818  0.24695680     1.04300
C35         C  0.72320820  0.80835765  0.21930139     0.93600
C36         C  0.72469006  0.71503511  0.27438725     0.92800
C37         C  0.72371557  0.80994217  0.27358073     0.84900
C38         C  0.72683845  0.71416930  0.21963070     0.91200
N39         N  0.72026918  0.56130021  0.34838879    -0.26900
N40         N  0.69346810  0.57625781  0.35613759    -0.34800
C41         C  0.68846427  0.60604178  0.34712169     0.01400
C42         C  0.71317879  0.60997593  0.33289173     0.07500
C43         C  0.73298002  0.58107755  0.33426233    -0.05600
H44         H  0.66825426  0.62343234  0.35077681     0.08100
H45         H  0.75458886  0.57441894  0.32533380     0.09300
Cu46       Cu  0.66392673  0.55496972  0.37812382     0.44200
Cu47       Cu  0.73839038  0.51471555  0.35721658     0.42000
Cu48       Cu  0.69282482  0.47364597  0.39596816     0.43900
N49         N  0.63830786  0.52701971  0.39924838    -0.34300
N50         N  0.64905598  0.49734136  0.40555788    -0.28500
C51         C  0.62759916  0.48578430  0.41917050    -0.04600
C52         C  0.60166421  0.50927897  0.42179973     0.07600
C53         C  0.60954485  0.53512462  0.40876021     0.01400
H54         H  0.63142641  0.46203794  0.42657141     0.09000
H55         H  0.59576262  0.55842663  0.40641989     0.08100
N56         N  0.73732219  0.45485846  0.38418182    -0.35700
N57         N  0.75379786  0.46993061  0.36990088    -0.27900
C58         C  0.78193465  0.45215015  0.36576998    -0.03200
C59         C  0.78329809  0.42439634  0.37801087     0.05500
C60         C  0.75453324  0.42695903  0.38952281     0.03600
H61         H  0.80004931  0.45902571  0.35464166     0.08700
H62         H  0.74699755  0.41040183  0.40125027     0.07500
N63         N  0.72320596  0.57189206  0.13808028    -0.26900
N64         N  0.75384381  0.58257130  0.13310977    -0.34800
C65         C  0.76232875  0.60899554  0.14452713     0.01400
C66         C  0.73574088  0.61519976  0.15732752     0.07500
C67         C  0.71137202  0.59120972  0.15265409    -0.05600
H68         H  0.78609713  0.62261697  0.14349372     0.08100
H69         H  0.68714716  0.58731503  0.15972685     0.09300
Cu70       Cu  0.78300316  0.55986471  0.11135490     0.44200
Cu71       Cu  0.69916276  0.53029799  0.12590768     0.42000
Cu72       Cu  0.74492995  0.48520248  0.08906621     0.43900
N73         N  0.80577589  0.53196448  0.08910036    -0.34300
N74         N  0.79158498  0.50500149  0.08106492    -0.28500
C75         C  0.81175333  0.49344338  0.06679559    -0.04600
C76         C  0.84014294  0.51410072  0.06562581     0.07600
C77         C  0.83556473  0.53813676  0.08012188     0.01400
H78         H  0.80599176  0.47150782  0.05796717     0.09000
H79         H  0.85216555  0.55917647  0.08351718     0.08100
N80         N  0.69772029  0.47020087  0.09911764    -0.35700
N81         N  0.68096606  0.48670912  0.11276626    -0.27900
C82         C  0.65149212  0.47061456  0.11627621    -0.03200
C83         C  0.64953472  0.44254624  0.10421399     0.05500
C84         C  0.67928978  0.44323721  0.09347271     0.03600
H85         H  0.63269451  0.47919460  0.12661726     0.08700
H86         H  0.68720411  0.42526691  0.08250847     0.07500
N87         N  0.72564732  0.95429817  0.13995493    -0.26900
N88         N  0.69669707  0.94086604  0.13399718    -0.34800
C89         C  0.68984929  0.91348900  0.14494092     0.01400
C90         C  0.71584207  0.90942979  0.15838647     0.07500
C91         C  0.73800154  0.93593746  0.15475848    -0.05600
H92         H  0.66757829  0.89770471  0.14318258     0.08100
H93         H  0.76100954  0.94215947  0.16255204     0.09300
Cu94       Cu  0.66776455  0.96082802  0.11141206     0.44200
Cu95       Cu  0.74742692  0.99701121  0.12802477     0.42000
Cu96       Cu  0.70367856  0.03560166  0.08818655     0.43900
N97         N  0.64464365  0.98665339  0.08859740    -0.34300
N98         N  0.65786040  0.01379394  0.08033237    -0.28500
C99         C  0.63697737  0.02452476  0.06622908    -0.04600
C100        C  0.60889063  0.00320126  0.06535829     0.07600
C101        C  0.61489697  0.97937222  0.07988127     0.01400
H102        H  0.64221464  0.04643666  0.05733625     0.09000
H103        H  0.59929161  0.95807414  0.08395699     0.08100
N104        N  0.74980985  0.05294814  0.09862946    -0.35700
N105        N  0.76582342  0.03864146  0.11331906    -0.27900
C106        C  0.79508657  0.05521696  0.11655987    -0.03200
C107        C  0.79763686  0.08143147  0.10330156     0.05500
C108        C  0.76842344  0.07915270  0.09212009     0.03600
H109        H  0.81300247  0.04876305  0.12787001     0.08700
H110        H  0.76138107  0.09484781  0.07991837     0.07500
C111        C  0.49861762  0.01232626  0.00965533     0.02700
C112        C  0.47649119  0.04028579  0.00760764     0.02600
C113        C  0.45256647  0.04035826  0.99248458    -0.17900
C114        C  0.45038203  0.01333905  0.97924818     0.02700
C115        C  0.47300635  0.98564543  0.98120856     0.02600
C116        C  0.49649668  0.98535071  0.99649947    -0.17900
H117        H  0.51414074  0.96434806  0.99780627     0.04700
H118        H  0.43479602  0.06127029  0.99136703     0.04700
N119        N  0.22387079  0.06375013  0.84837616    -0.26900
N120        N  0.25469513  0.07468427  0.85274203    -0.34800
C121        C  0.26249293  0.10075273  0.84096562     0.01400
C122        C  0.23515352  0.10668987  0.82866493     0.07500
C123        C  0.21123930  0.08251087  0.83379895    -0.05600
H124        H  0.28611048  0.11474541  0.84158981     0.08100
H125        H  0.18658564  0.07833543  0.82731557     0.09300
Cu126      Cu  0.28409339  0.05424248  0.87500906     0.44200
Cu127      Cu  0.19982199  0.02385577  0.86220871     0.42000
Cu128      Cu  0.24279445  0.98636041  0.90244694     0.43900
N129        N  0.30558225  0.03054095  0.89908320    -0.34300
N130        N  0.29014858  0.00644596  0.90907220    -0.28500
C131        C  0.31009494  0.99706835  0.92393164    -0.04600
C132        C  0.33988471  0.01587053  0.92333830     0.07600
C133        C  0.33591781  0.03699335  0.90737037     0.01400
H134        H  0.30275529  0.97836999  0.93457704     0.09000
H135        H  0.35374729  0.05571600  0.90209110     0.08100
N136        N  0.19668682  0.96847359  0.89201434    -0.35700
N137        N  0.18096567  0.98241975  0.87712035    -0.27900
C138        C  0.15262636  0.96468437  0.87321504    -0.03200
C139        C  0.15024502  0.93799168  0.88624789     0.05500
C140        C  0.17872771  0.94141669  0.89803251     0.03600
H141        H  0.13555552  0.97040222  0.86137494     0.08700
H142        H  0.18608492  0.92562936  0.91011852     0.07500
N143        N  0.21933800  0.46108724  0.84518515    -0.26900
N144        N  0.19142598  0.44719729  0.85231002    -0.34800
C145        C  0.18424825  0.41896263  0.84210460     0.01400
C146        C  0.20872279  0.41479838  0.82773261     0.07500
C147        C  0.23054713  0.44212014  0.83026044    -0.05600
H148        H  0.16314468  0.40239323  0.84533402     0.08100
H149        H  0.25302466  0.44792989  0.82186725     0.09300
Cu150      Cu  0.16440515  0.46690905  0.87585194     0.44200
Cu151      Cu  0.24195261  0.50450316  0.85647809     0.42000
Cu152      Cu  0.20102536  0.54127606  0.89843736     0.43900
N153        N  0.14275095  0.49158646  0.89966090    -0.34300
N154        N  0.15662708  0.51845106  0.90797669    -0.28500
C155        C  0.13749250  0.52789934  0.92320558    -0.04600
C156        C  0.11006172  0.50604540  0.92461348     0.07600
C157        C  0.11411959  0.48345258  0.90934132     0.01400
H158        H  0.14303280  0.54940312  0.93243396     0.09000
H159        H  0.09783122  0.46225478  0.90576722     0.08100
N160        N  0.24588809  0.55963216  0.88672263    -0.35700
N161        N  0.26089697  0.54631289  0.87136660    -0.27900
C162        C  0.28956350  0.56375005  0.86767871    -0.03200
C163        C  0.29277207  0.58945511  0.88133583     0.05500
C164        C  0.26453801  0.58585954  0.89320887     0.03600
H165        H  0.30666771  0.55817110  0.85581895     0.08700
H166        H  0.25816883  0.60060239  0.90592017     0.07500
O167        O  0.25258286  0.22454727  0.72196825    -0.72600
O168        O  0.24936649  0.29717773  0.76368159    -0.73500
O169        O  0.25326415  0.22492400  0.76324643    -0.62200
O170        O  0.25000741  0.29620858  0.72245670    -0.70600
O171        O  0.19378610  0.29462810  0.72205472    -0.70100
O172        O  0.19709723  0.22185425  0.76356075    -0.61400
O173        O  0.19318795  0.29410840  0.76348412    -0.73900
O174        O  0.19635257  0.22277461  0.72226494    -0.72700
Cu175      Cu  0.25321965  0.26080806  0.74288341     1.04600
Cu176      Cu  0.19314833  0.25826007  0.74288393     1.04300
C177        C  0.22464688  0.21244948  0.71539066     0.93600
C178        C  0.22051813  0.30727009  0.77007522     0.92800
C179        C  0.22601651  0.21171290  0.76982701     0.84900
C180        C  0.22182424  0.30656951  0.71552705     0.91200
N181        N  0.23442770  0.06959917  0.63392297    -0.26900
N182        N  0.20337819  0.07934437  0.62922390    -0.34800
C183        C  0.19419096  0.10519427  0.64080943     0.01400
C184        C  0.22064559  0.11207369  0.65357017     0.07500
C185        C  0.24580237  0.08901120  0.64862520    -0.05600
H186        H  0.17009399  0.11817455  0.63973879     0.08100
H187        H  0.27038655  0.08604793  0.65544686     0.09300
Cu188      Cu  0.17464542  0.05728047  0.60722149     0.44200
Cu189      Cu  0.25953713  0.02989110  0.62034576     0.42000
Cu190      Cu  0.21456280  0.98968322  0.58039389     0.43900
N191        N  0.15209283  0.03326618  0.58360882    -0.34300
N192        N  0.16708991  0.00895541  0.57358114    -0.28500
C193        C  0.14679936  0.99968407  0.55879486    -0.04600
C194        C  0.11747768  0.01908830  0.55948917     0.07600
C195        C  0.12169614  0.03995588  0.57552331     0.01400
H196        H  0.15291318  0.97995337  0.54846561     0.09000
H197        H  0.10429693  0.05914576  0.58069665     0.08100
N198        N  0.26182145  0.97430948  0.59025374    -0.35700
N199        N  0.27819395  0.98890224  0.60476941    -0.27900
C200        C  0.30756465  0.97235697  0.60777117    -0.03200
C201        C  0.30984817  0.94591345  0.59455656     0.05500
C202        C  0.28032776  0.94812058  0.58363177     0.03600
H203        H  0.32548890  0.97866219  0.61911511     0.08700
H204        H  0.27265757  0.93210640  0.57167926     0.07500
N205        N  0.21547113  0.45246580  0.63629313    -0.26900
N206        N  0.24489435  0.43987607  0.63053229    -0.34800
C207        C  0.25136993  0.41155164  0.64069048     0.01400
C208        C  0.22474837  0.40596254  0.65351440     0.07500
C209        C  0.20239691  0.43246592  0.65022507    -0.05600
H210        H  0.27437156  0.39678223  0.63926637     0.08100
H211        H  0.17939955  0.43811035  0.65817268     0.09300
Cu212      Cu  0.27662111  0.46358632  0.61057170     0.44200
Cu213      Cu  0.19664506  0.49847370  0.62676045     0.42000
Cu214      Cu  0.25142043  0.54798415  0.59545433     0.43900
N215        N  0.30447357  0.49318506  0.59131469    -0.34300
N216        N  0.29541604  0.52404673  0.58600535    -0.28500
C217        C  0.31789550  0.53577413  0.57294353    -0.04600
C218        C  0.34244223  0.51113698  0.56973702     0.07600
C219        C  0.33295083  0.48445444  0.58172229     0.01400
H220        H  0.31596332  0.56026159  0.56601223     0.09000
H221        H  0.34480659  0.45985085  0.58284099     0.08100
N222        N  0.20497262  0.56508953  0.60588739    -0.35700
N223        N  0.18500730  0.54677125  0.61717090    -0.27900
C224        C  0.15704827  0.56476149  0.62148441    -0.03200
C225        C  0.15923719  0.59601117  0.61238465     0.05500
C226        C  0.19013917  0.59528575  0.60268473     0.03600
H227        H  0.13709069  0.55579161  0.63094967     0.08700
H228        H  0.20099499  0.61510341  0.59379731     0.07500
C229        C  0.97628965  0.48442319  0.01060295     0.02700
C230        C  0.94993789  0.50872255  0.00982170     0.02600
C231        C  0.94999197  0.53317854  0.99507817    -0.17900
C232        C  0.97580930  0.53417293  0.98100329     0.02700
C233        C  0.00226879  0.50990127  0.98178718     0.02600
C234        C  0.00229959  0.48554767  0.99663693    -0.17900
H235        H  0.02228763  0.46663339  0.99697113     0.04700
H236        H  0.92997390  0.55206548  0.99479202     0.04700
O237        O  0.68825952  0.78982055  0.76535855    -0.72600
O238        O  0.76066287  0.79169570  0.72560694    -0.73500
O239        O  0.68895201  0.79142520  0.72422632    -0.62200
O240        O  0.76011108  0.78817982  0.76671948    -0.70600
O241        O  0.75879139  0.73213088  0.76532744    -0.70100
O242        O  0.68915680  0.73531441  0.72377373    -0.61400
O243        O  0.76102775  0.73562959  0.72413811    -0.73900
O244        O  0.68669180  0.73373153  0.76495556    -0.72700
Cu245      Cu  0.72450365  0.79220231  0.74554164     1.04600
Cu246      Cu  0.72389408  0.73223570  0.74451785     1.04300
C247        C  0.67589259  0.76206019  0.77162834     0.93600
C248        C  0.77228295  0.76436756  0.71833396     0.92800
C249        C  0.67808428  0.76339159  0.71718452     0.84900
C250        C  0.77064674  0.75931081  0.77271241     0.91200
N251        N  0.52929991  0.76223787  0.85060047    -0.26900
N252        N  0.54224931  0.79139833  0.85642645    -0.34800
C253        C  0.56958377  0.79855278  0.84545690     0.01400
C254        C  0.57385341  0.77266758  0.83196977     0.07500
C255        C  0.54783673  0.75006732  0.83581214    -0.05600
H256        H  0.58523703  0.82081069  0.84740123     0.08100
H257        H  0.54228571  0.72670136  0.82822756     0.09300
Cu258      Cu  0.52151796  0.81990002  0.87890262     0.44200
Cu259      Cu  0.48711235  0.74002398  0.86277576     0.42000
Cu260      Cu  0.45013581  0.77939140  0.90433108     0.43900
N261        N  0.49567821  0.84135442  0.90220759    -0.34300
N262        N  0.47072254  0.82612474  0.91167907    -0.28500
C263        C  0.46056070  0.84610883  0.92636140    -0.04600
C264        C  0.47968426  0.87551599  0.92605404     0.07600
C265        C  0.50170754  0.87165223  0.91052946     0.01400
H266        H  0.44045030  0.83976841  0.93643651     0.09000
H267        H  0.52131032  0.88912013  0.90591838     0.08100
N268        N  0.43177800  0.73459660  0.89247815    -0.35700
N269        N  0.44552716  0.72051653  0.87698997    -0.27900
C270        C  0.42769350  0.69282708  0.87207263    -0.03200
C271        C  0.40126633  0.68896319  0.88515916     0.05500
C272        C  0.40463168  0.71610978  0.89788338     0.03600
H273        H  0.43307966  0.67751081  0.85943875     0.08700
H274        H  0.38840603  0.72223166  0.91005027     0.07500
N275        N  0.91960024  0.75773785  0.85015448    -0.26900
N276        N  0.90778878  0.72797043  0.85574936    -0.34800
C277        C  0.88035957  0.72019711  0.84494183     0.01400
C278        C  0.87466679  0.74642154  0.83189586     0.07500
C279        C  0.90010913  0.76973487  0.83572678    -0.05600
H280        H  0.86533389  0.69751742  0.84684715     0.08100
H281        H  0.90437633  0.79368456  0.82850860     0.09300
Cu282      Cu  0.92913101  0.70022325  0.87833068     0.44200
Cu283      Cu  0.96105902  0.78151543  0.86251591     0.42000
Cu284      Cu  0.99728837  0.74317934  0.90489295     0.43900
N285        N  0.95405531  0.67976874  0.90224093    -0.34300
N286        N  0.97822874  0.69562747  0.91201483    -0.28500
C287        C  0.98858491  0.67575995  0.92670602    -0.04600
C288        C  0.97026689  0.64569445  0.92618593     0.07600
C289        C  0.94849681  0.64935174  0.91046868     0.01400
H290        H  0.00770040  0.68317772  0.93714079     0.09000
H291        H  0.93002301  0.63118318  0.90526250     0.08100
N292        N  0.01499430  0.78834399  0.89311651    -0.35700
N293        N  0.00176864  0.80202998  0.87736441    -0.27900
C294        C  0.01935028  0.83006782  0.87274388    -0.03200
C295        C  0.04502342  0.83453052  0.88629434     0.05500
C296        C  0.04145697  0.80741203  0.89897276     0.03600
H297        H  0.01428238  0.84530349  0.86004786     0.08700
H298        H  0.05706930  0.80173982  0.91146922     0.07500
N299        N  0.53899889  0.76868002  0.63387988    -0.26900
N300        N  0.55011298  0.73819758  0.62911663    -0.34800
C301        C  0.57607282  0.72998687  0.64088080     0.01400
C302        C  0.58138308  0.75647815  0.65382528     0.07500
C303        C  0.55744503  0.78061351  0.64880199    -0.05600
H304        H  0.58993817  0.70643424  0.63992132     0.08100
H305        H  0.55306964  0.80479420  0.65576583     0.09300
Cu306      Cu  0.52871149  0.70831972  0.60743428     0.44200
Cu307      Cu  0.49883373  0.79276270  0.62046977     0.42000
Cu308      Cu  0.45827695  0.74759022  0.58189697     0.43900
N309        N  0.50166847  0.68469518  0.58528820    -0.34300
N310        N  0.47652218  0.69959272  0.57585856    -0.28500
C311        C  0.46519855  0.67876538  0.56187462    -0.04600
C312        C  0.48381844  0.64911725  0.56256115     0.07600
C313        C  0.50672899  0.65367808  0.57762443     0.01400
H314        H  0.44490943  0.68486286  0.55187941     0.09000
H315        H  0.52636706  0.63627889  0.58224267     0.08100
N316        N  0.44320208  0.79533830  0.59078233    -0.35700
N317        N  0.45818046  0.81188481  0.60506444    -0.27900
C318        C  0.44206449  0.84144031  0.60794361    -0.03200
C319        C  0.41556214  0.84381486  0.59474495     0.05500
C320        C  0.41708715  0.81394234  0.58413357     0.03600
H321        H  0.44853035  0.85909224  0.61936144     0.08700
H322        H  0.40026060  0.80600182  0.57258542     0.07500
N323        N  0.92271841  0.76830851  0.64217250    -0.26900
N324        N  0.90886360  0.79639831  0.63544879    -0.34800
C325        C  0.87999847  0.80255992  0.64527571     0.01400
C326        C  0.87555878  0.77706607  0.65891253     0.07500
C327        C  0.90311313  0.75574334  0.65639081    -0.05600
H328        H  0.86367321  0.82410953  0.64265961     0.08100
H329        H  0.90918131  0.73332477  0.66472197     0.09300
Cu330      Cu  0.93134307  0.82557668  0.61399924     0.44200
Cu331      Cu  0.96863758  0.74953189  0.63259867     0.42000
Cu332      Cu  0.01653690  0.79966713  0.59844712     0.43900
N333        N  0.96039684  0.85134289  0.59370926    -0.34300
N334        N  0.99138515  0.84247828  0.58833826    -0.28500
C335        C  0.00244985  0.86435434  0.57478780    -0.04600
C336        C  0.97721607  0.88821767  0.57136284     0.07600
C337        C  0.95090424  0.87891940  0.58367010     0.01400
H338        H  0.02693380  0.86251972  0.56774917     0.09000
H339        H  0.92604877  0.89032816  0.58486162     0.08100
N340        N  0.03347524  0.75371049  0.60954149    -0.35700
N341        N  0.01548138  0.73544299  0.62187838    -0.27900
C342        C  0.03211901  0.70655865  0.62573182    -0.03200
C343        C  0.06223392  0.70643475  0.61535888     0.05500
C344        C  0.06223907  0.73683393  0.60523237     0.03600
H345        H  0.02274433  0.68699090  0.63532178     0.08700
H346        H  0.08104671  0.74556874  0.59494605     0.07500
N347        N  0.03544736  0.25146106  0.13525310    -0.26900
N348        N  0.04572874  0.28231783  0.13069929    -0.34800
C349        C  0.07282370  0.29024365  0.14169069     0.01400
C350        C  0.08002831  0.26297833  0.15370583     0.07500
C351        C  0.05564634  0.23890746  0.14921148    -0.05600
H352        H  0.08619909  0.31417207  0.14098161     0.08100
H353        H  0.05200062  0.21445240  0.15595473     0.09300
Cu354      Cu  0.02223873  0.31222385  0.10985992     0.44200
Cu355      Cu  0.99406827  0.22788009  0.12276057     0.42000
Cu356      Cu  0.95263208  0.27259448  0.08376309     0.43900
N357        N  0.99588774  0.33549508  0.08741731    -0.34300
N358        N  0.97100333  0.32074839  0.07769371    -0.28500
C359        C  0.96025225  0.34180030  0.06366049    -0.04600
C360        C  0.97910543  0.37154664  0.06457262     0.07600
C361        C  0.00152011  0.36641244  0.07986542     0.01400
H362        H  0.94077735  0.33519871  0.05327612     0.09000
H363        H  0.02078864  0.38369604  0.08509894     0.08100
N364        N  0.93681816  0.22570523  0.09395027    -0.35700
N365        N  0.95202052  0.20951331  0.10828548    -0.27900
C366        C  0.93480006  0.18094244  0.11221387    -0.03200
C367        C  0.90729263  0.17890397  0.09972339     0.05500
C368        C  0.90940445  0.20783019  0.08836781     0.03600
H369        H  0.94111607  0.16385651  0.12392251     0.08700
H370        H  0.89196668  0.21572231  0.07711812     0.07500
N371        N  0.41577571  0.26798743  0.13513092    -0.26900
N372        N  0.40710338  0.23635908  0.13122869    -0.34800
C373        C  0.38233170  0.22688049  0.14357680     0.01400
C374        C  0.37491606  0.25397004  0.15576982     0.07500
C375        C  0.39683837  0.27950588  0.14995707    -0.05600
H376        H  0.37035835  0.20221004  0.14351838     0.08100
H377        H  0.39953912  0.30445874  0.15625170     0.09300
Cu378      Cu  0.42941838  0.20824840  0.10897397     0.44200
Cu379      Cu  0.45362375  0.29403382  0.12061935     0.42000
Cu380      Cu  0.49419773  0.25244292  0.08042791     0.43900
N381        N  0.45415578  0.18751322  0.08497208    -0.34300
N382        N  0.47687099  0.20395055  0.07440925    -0.28500
C383        C  0.48702766  0.18393818  0.05972134    -0.04600
C384        C  0.47018412  0.15322003  0.06110995     0.07600
C385        C  0.44948668  0.15647317  0.07729985     0.01400
H386        H  0.50562071  0.19118122  0.04892484     0.09000
H387        H  0.43164085  0.13802253  0.08285955     0.08100
N388        N  0.50990458  0.29890677  0.09121760    -0.35700
N389        N  0.49485716  0.31404589  0.10598525    -0.27900
C390        C  0.51243965  0.34202837  0.11070999    -0.03200
C391        C  0.54009438  0.34476188  0.09835401     0.05500
C392        C  0.53755316  0.31689704  0.08613144     0.03600
H393        H  0.50602611  0.35854438  0.12269137     0.08700
H394        H  0.55543092  0.30905357  0.07509826     0.07500
O395        O  0.19028511  0.22897266  0.22207138    -0.72600
O396        O  0.26018808  0.22878500  0.26510007    -0.73500
O397        O  0.18826493  0.22754175  0.26348998    -0.62200
O398        O  0.26228641  0.22868553  0.22381614    -0.70600
O399        O  0.26215143  0.28478042  0.22369127    -0.70100
O400        O  0.18733593  0.28360227  0.26426283    -0.61400
O401        O  0.25924517  0.28488200  0.26494007    -0.73900
O402        O  0.19025010  0.28505359  0.22295503    -0.72700
Cu403      Cu  0.22524831  0.22654602  0.24360107     1.04600
Cu404      Cu  0.22472664  0.28650545  0.24396695     1.04300
C405        C  0.17944592  0.25741500  0.21562151     0.93600
C406        C  0.27052736  0.25718629  0.27190888     0.92800
C407        C  0.17628982  0.25502690  0.27045487     0.84900
C408        C  0.27391589  0.25662681  0.21729380     0.91200
N409        N  0.02540118  0.25721645  0.34731645    -0.26900
N410        N  0.03979063  0.22974822  0.35458244    -0.34800
C411        C  0.06854680  0.22338943  0.34461112     0.01400
C412        C  0.07258242  0.24819468  0.33048469     0.07500
C413        C  0.04459272  0.26911349  0.33268672    -0.05600
H414        H  0.08521955  0.20217920  0.34741120     0.08100
H415        H  0.03792014  0.29082457  0.32392728     0.09300
Cu416      Cu  0.01894400  0.20179489  0.37745818     0.44200
Cu417      Cu  0.97979670  0.27722842  0.35698170     0.42000
Cu418      Cu  0.93833301  0.23337946  0.39582598     0.43900
N419        N  0.99105618  0.17854886  0.39959538    -0.34300
N420        N  0.96158655  0.19013404  0.40590173    -0.28500
C421        C  0.94958180  0.16954364  0.41978197    -0.04600
C422        C  0.97263069  0.14344093  0.42266842     0.07600
C423        C  0.99864788  0.15015682  0.40949242     0.01400
H424        H  0.92549433  0.17357568  0.42690794     0.09000
H425        H  0.02163123  0.13567963  0.40725218     0.08100
N426        N  0.91974677  0.27740383  0.38389530    -0.35700
N427        N  0.93493012  0.29358531  0.36955732    -0.27900
C428        C  0.91698037  0.32152626  0.36526385    -0.03200
C429        C  0.88918934  0.32306733  0.37759712     0.05500
C430        C  0.89171398  0.29450635  0.38913684     0.03600
H431        H  0.92362231  0.33911004  0.35385509     0.08700
H432        H  0.87479947  0.28693909  0.40072226     0.07500
N433        N  0.40830789  0.25137849  0.35622823    -0.26900
N434        N  0.39632801  0.28159121  0.36082451    -0.34800
C435        C  0.37066347  0.28917278  0.34871709     0.01400
C436        C  0.36626339  0.26242772  0.33582239     0.07500
C437        C  0.39077326  0.23898153  0.34108427    -0.05600
H438        H  0.35646291  0.31259508  0.34925970     0.08100
H439        H  0.39648922  0.21511446  0.33412836     0.09300
Cu440      Cu  0.41639427  0.31171800  0.38278234     0.44200
Cu441      Cu  0.44886443  0.22857279  0.36991282     0.42000
Cu442      Cu  0.48905803  0.27509873  0.40802205     0.43900
N443        N  0.44225110  0.33569008  0.40524577    -0.34300
N444        N  0.46835055  0.32196490  0.41440255    -0.28500
C445        C  0.47896221  0.34318467  0.42836849    -0.04600
C446        C  0.45873546  0.37185225  0.42806021     0.07600
C447        C  0.43567796  0.36620949  0.41316279     0.01400
H448        H  0.50001699  0.33803862  0.43800980     0.09000
H449        H  0.41504685  0.38253865  0.40870742     0.08100
N450        N  0.50647076  0.22859006  0.39840922    -0.35700
N451        N  0.49140202  0.21151258  0.38436400    -0.27900
C452        C  0.50891665  0.18300463  0.38087248    -0.03200
C453        C  0.53659476  0.18197956  0.39329285     0.05500
C454        C  0.53410359  0.21137620  0.40427675     0.03600
H455        H  0.50238203  0.16486552  0.36970335     0.08700
H456        H  0.55090853  0.21979121  0.41572349     0.07500
C457        C  0.97119424  0.03569393  0.47968242     0.02700
C458        C  0.94423832  0.01274689  0.48302604     0.02600
C459        C  0.94603611  0.99061716  0.49890828    -0.17900
C460        C  0.97441471  0.99051154  0.51125526     0.02700
C461        C  0.00133092  0.01350007  0.50793212     0.02600
C462        C  0.99950242  0.03565898  0.49208821    -0.17900
H463        H  0.01989097  0.05370274  0.48969507     0.04700
H464        H  0.92562740  0.97261766  0.50134975     0.04700
C465        C  0.49351051  0.50998325  0.47934392     0.02700
C466        C  0.46898664  0.48410167  0.48156501     0.02600
C467        C  0.44627920  0.48520360  0.49723823    -0.17900
C468        C  0.44728485  0.51179674  0.51071131     0.02700
C469        C  0.47177612  0.53772017  0.50857246     0.02600
C470        C  0.49450768  0.53655683  0.49287433    -0.17900
H471        H  0.51374894  0.55610054  0.49146003     0.04700
H472        H  0.42727088  0.46545700  0.49877652     0.04700
C473        C  0.45360741  0.46095893  0.44897106    -0.20900
C474        C  0.46638045  0.45566637  0.46771676    -0.09000
C475        C  0.47634811  0.42306356  0.47335168     0.29900
C476        C  0.47384730  0.39610358  0.46032827    -0.20900
C477        C  0.46086600  0.40105531  0.44153448    -0.09000
C478        C  0.45060636  0.43384448  0.43595722     0.29900
F479        F  0.43856208  0.43995781  0.41785188    -0.19500
H480        H  0.44586133  0.48609439  0.44448331     0.18300
H481        H  0.48170975  0.37119107  0.46509688     0.18300
F482        F  0.48903758  0.41748577  0.49138128    -0.19500
C483        C  0.94563018  0.08758215  0.46525030    -0.20900
C484        C  0.96962451  0.06149629  0.46417246    -0.09000
C485        C  0.99357125  0.06162336  0.44913295     0.29900
C486        C  0.99379034  0.08784211  0.43552045    -0.20900
C487        C  0.97046175  0.11481835  0.43677288    -0.09000
C488        C  0.94600340  0.11411767  0.45182855     0.29900
F489        F  0.92312487  0.13940849  0.45425710    -0.19500
H490        H  0.92722118  0.08795661  0.47694574     0.18300
H491        H  0.01260668  0.08697663  0.42410101     0.18300
F492        F  0.01685991  0.03639449  0.44768936    -0.19500
C493        C  0.13409358  0.28312488  0.29269006    -0.20900
C494        C  0.14983668  0.25341073  0.28590855    -0.09000
C495        C  0.14035919  0.22217307  0.29431007     0.29900
C496        C  0.11570188  0.22089415  0.30890304    -0.20900
C497        C  0.09960607  0.25048239  0.31545006    -0.09000
C498        C  0.10924024  0.28177158  0.30725333     0.29900
F499        F  0.09536430  0.31122446  0.31360608    -0.19500
H500        H  0.14101062  0.30755274  0.28672094     0.18300
H501        H  0.10877687  0.19645817  0.31484889     0.18300
F502        F  0.15489817  0.19265075  0.28854845    -0.19500
C503        C  0.30969054  0.22840646  0.29534492    -0.20900
C504        C  0.29534603  0.25838950  0.28808155    -0.09000
C505        C  0.30453706  0.28950645  0.29669670     0.29900
C506        C  0.32749884  0.29038734  0.31209602    -0.20900
C507        C  0.34188462  0.26047309  0.31940400    -0.09000
C508        C  0.33265875  0.22930286  0.31083900     0.29900
F509        F  0.34491587  0.19949972  0.31765407    -0.19500
H510        H  0.30296381  0.20409788  0.28912077     0.18300
H511        H  0.33417628  0.31479625  0.31816114     0.18300
F512        F  0.29125119  0.31929353  0.29043233    -0.19500
C513        C  0.34005866  0.22506324  0.18120608    -0.20900
C514        C  0.34952150  0.25509118  0.17173483    -0.09000
C515        C  0.33441399  0.28579023  0.17766598     0.29900
C516        C  0.31035139  0.28617841  0.19264119    -0.20900
C517        C  0.30067442  0.25608646  0.20202663    -0.09000
C518        C  0.31608680  0.22542726  0.19618874     0.29900
F519        F  0.30818770  0.19563370  0.20492782    -0.19500
H520        H  0.35148976  0.20113358  0.17714789     0.18300
H521        H  0.29883145  0.31009754  0.19665139     0.18300
F522        F  0.34181001  0.31536109  0.16857834    -0.19500
C523        C  0.11796684  0.29105076  0.17779757    -0.20900
C524        C  0.10636843  0.26112234  0.16902864    -0.09000
C525        C  0.11964451  0.22987805  0.17535828     0.29900
C526        C  0.14335461  0.22879839  0.19048115    -0.20900
C527        C  0.15445085  0.25874917  0.19952331    -0.09000
C528        C  0.14165911  0.29003626  0.19283741     0.29900
F529        F  0.15166204  0.31984322  0.20087283    -0.19500
H530        H  0.10816403  0.31544315  0.17330708     0.18300
H531        H  0.15311229  0.20442546  0.19506198     0.18300
F532        F  0.11042821  0.20038532  0.16669688    -0.19500
C533        C  0.00072752  0.91451050  0.54110911    -0.20900
C534        C  0.97733326  0.91564691  0.55655476    -0.09000
C535        C  0.95376552  0.94259622  0.55722085     0.29900
C536        C  0.95292491  0.96675607  0.54241152    -0.20900
C537        C  0.97599534  0.96512232  0.52698492    -0.09000
C538        C  0.00014059  0.93900948  0.52649181     0.29900
F539        F  0.02251685  0.93666653  0.51156301    -0.19500
H540        H  0.01908398  0.89423463  0.53999743     0.18300
H541        H  0.93445276  0.98705801  0.54306487     0.18300
F542        F  0.93185356  0.94621217  0.57225518    -0.19500
C543        C  0.48152228  0.55973388  0.54223534    -0.20900
C544        C  0.47449882  0.56606357  0.52258692    -0.09000
C545        C  0.47096636  0.59964742  0.51622829     0.29900
C546        C  0.47390429  0.62640153  0.52937536    -0.20900
C547        C  0.48101832  0.62021473  0.54901908    -0.09000
C548        C  0.48489113  0.58658749  0.55538963     0.29900
F549        F  0.49097412  0.57963905  0.57435480    -0.19500
H550        H  0.48466713  0.53397714  0.54733398     0.18300
H551        H  0.47105320  0.65209780  0.52412008     0.18300
F552        F  0.46434104  0.60652258  0.49730977    -0.19500
C553        C  0.80740173  0.79899167  0.69568654    -0.20900
C554        C  0.79858246  0.76686667  0.70299591    -0.09000
C555        C  0.81505196  0.73810578  0.69545423     0.29900
C556        C  0.83982178  0.74166243  0.68102693    -0.20900
C557        C  0.84854297  0.77381040  0.67375715    -0.09000
C558        C  0.83201256  0.80252705  0.68127191     0.29900
F559        F  0.84036153  0.83421108  0.67530077    -0.19500
H560        H  0.79532392  0.82170498  0.70119325     0.18300
H561        H  0.85207730  0.71910620  0.67545580     0.18300
F562        F  0.80755377  0.70659881  0.70206572    -0.19500
C563        C  0.80683512  0.72438100  0.79474922    -0.20900
C564        C  0.79674055  0.75662871  0.78819907    -0.09000
C565        C  0.81213961  0.78544040  0.79643006     0.29900
C566        C  0.83717332  0.78184389  0.81070668    -0.20900
C567        C  0.84737609  0.74957544  0.81713641    -0.09000
C568        C  0.83180718  0.72079642  0.80899843     0.29900
F569        F  0.84143191  0.68907320  0.81419678    -0.19500
H570        H  0.79563274  0.70164214  0.78869374     0.18300
H571        H  0.84845153  0.80448969  0.81680117     0.18300
F572        F  0.80332088  0.81710435  0.79065712    -0.19500
C573        C  0.64029416  0.79563323  0.79443038    -0.20900
C574        C  0.64930147  0.76376305  0.78684881    -0.09000
C575        C  0.63287043  0.73472970  0.79408750     0.29900
C576        C  0.60842585  0.73780004  0.80877217    -0.20900
C577        C  0.59986696  0.76975117  0.81648652    -0.09000
C578        C  0.61592250  0.79870542  0.80896722     0.29900
F579        F  0.60751120  0.83025114  0.81513267    -0.19500
H580        H  0.65211282  0.81858832  0.78908262     0.18300
H581        H  0.59645709  0.71502172  0.81423007     0.18300
F582        F  0.64024237  0.70346160  0.78703720    -0.19500
C583        C  0.64224091  0.73096712  0.69388510    -0.20900
C584        C  0.65292337  0.76254319  0.70116092    -0.09000
C585        C  0.63969664  0.79222583  0.69275688     0.29900
C586        C  0.61654672  0.79005669  0.67735506    -0.20900
C587        C  0.60616658  0.75837922  0.67001879    -0.09000
C588        C  0.61918236  0.72879613  0.67859415     0.29900
F589        F  0.60899742  0.69758156  0.67273235    -0.19500
H590        H  0.65166176  0.70758253  0.70007756     0.18300
H591        H  0.60703600  0.81328809  0.67104513     0.18300
F592        F  0.64910437  0.82330649  0.69928580    -0.19500
C593        C  0.94855548  0.43448958  0.02648071    -0.20900
C594        C  0.97635740  0.45664018  0.02516096    -0.09000
C595        C  0.00459979  0.45125765  0.03723008     0.29900
C596        C  0.00507684  0.42393121  0.05015551    -0.20900
C597        C  0.97738114  0.40140491  0.05138425    -0.09000
C598        C  0.94871953  0.40748767  0.03959005     0.29900
F599        F  0.92055169  0.38778620  0.04075528    -0.19500
H600        H  0.92673272  0.43781141  0.01711128     0.18300
H601        H  0.02754398  0.42017292  0.05893794     0.18300
F602        F  0.03176429  0.47244272  0.03650421    -0.19500
C603        C  0.00296111  0.58352336  0.96411320    -0.20900
C604        C  0.97508191  0.56164547  0.96623606    -0.09000
C605        C  0.94595431  0.56716791  0.95485873     0.29900
C606        C  0.94476253  0.59422800  0.94177638    -0.20900
C607        C  0.97252815  0.61642942  0.93974429    -0.09000
C608        C  0.00194422  0.61042173  0.95092463     0.29900
F609        F  0.03003326  0.63006216  0.94900424    -0.19500
H610        H  0.02549390  0.58007199  0.97291164     0.18300
H611        H  0.92173174  0.59807611  0.93348216     0.18300
F612        F  0.91860947  0.54634466  0.95639539    -0.19500
C613        C  0.14503822  0.65774636  0.60975405    -0.20900
C614        C  0.13431780  0.62424028  0.61307663    -0.09000
C615        C  0.09971903  0.61820393  0.61702481     0.29900
C616        C  0.07671111  0.64508069  0.61779020    -0.20900
C617        C  0.08740214  0.67854149  0.61449563    -0.09000
C618        C  0.12191209  0.68466820  0.61046098     0.29900
F619        F  0.13361112  0.71667691  0.60779915    -0.19500
H620        H  0.17151749  0.66328644  0.60691018     0.18300
H621        H  0.05022838  0.63948486  0.62060315     0.18300
F622        F  0.08764022  0.58630753  0.61953164    -0.19500
C623        C  0.36864010  0.53472877  0.53944739    -0.20900
C624        C  0.37045660  0.51208449  0.55520096    -0.09000
C625        C  0.39868938  0.49013995  0.55645302     0.29900
C626        C  0.42365911  0.49027846  0.54197967    -0.20900
C627        C  0.42139228  0.51266185  0.52627116    -0.09000
C628        C  0.39383678  0.53506309  0.52514254     0.29900
F629        F  0.39083236  0.55659999  0.50989547    -0.19500
H630        H  0.34729661  0.55174079  0.53785836     0.18300
H631        H  0.44496450  0.47302710  0.54306384     0.18300
F632        F  0.40267035  0.46891143  0.57174270    -0.19500
C633        C  0.36978953  0.92795354  0.60057790    -0.20900
C634        C  0.33737331  0.92029981  0.59322753    -0.09000
C635        C  0.33159759  0.88784376  0.58534444     0.29900
C636        C  0.35738742  0.86350839  0.58547622    -0.20900
C637        C  0.38943902  0.87082226  0.59344056    -0.09000
C638        C  0.39559999  0.90366528  0.60064109     0.29900
F639        F  0.42660928  0.91267782  0.60753630    -0.19500
H640        H  0.37532066  0.95290519  0.60630988     0.18300
H641        H  0.35173350  0.83849288  0.57988835     0.18300
F642        F  0.30069154  0.87882076  0.57832007    -0.19500
C643        C  0.05535994  0.02611981  0.55296668    -0.20900
C644        C  0.08796849  0.01793935  0.54609195    -0.09000
C645        C  0.09190967  0.00904085  0.52640732     0.29900
C646        C  0.06369625  0.00801184  0.51405043    -0.20900
C647        C  0.03111135  0.01544259  0.52109124    -0.09000
C648        C  0.02716917  0.02485428  0.54062418     0.29900
F649        F  0.99610501  0.03327650  0.54768481    -0.19500
H650        H  0.05157683  0.03314703  0.56800040     0.18300
H651        H  0.06719447  0.00110028  0.49896818     0.18300
F652        F  0.12305636  0.00226147  0.51891485    -0.19500
C653        C  0.19168379  0.34478944  0.69191597    -0.20900
C654        C  0.22218788  0.33215448  0.69970430    -0.09000
C655        C  0.25323646  0.34380794  0.69192198     0.29900
C656        C  0.25358719  0.36736099  0.67685925    -0.20900
C657        C  0.22322219  0.38017202  0.66915223    -0.09000
C658        C  0.19210867  0.36860589  0.67681978     0.29900
F659        F  0.16208742  0.37958345  0.66946739    -0.19500
H660        H  0.16742985  0.33616340  0.69745288     0.18300
H661        H  0.27791725  0.37601217  0.67147004     0.18300
F662        F  0.28354365  0.33256663  0.69877359    -0.19500
C663        C  0.19310962  0.17392756  0.69288461    -0.20900
C664        C  0.22438329  0.18660519  0.69963487    -0.09000
C665        C  0.25450946  0.17452377  0.69101905     0.29900
C666        C  0.25308438  0.15039280  0.67608157    -0.20900
C667        C  0.22172829  0.13787567  0.66932713    -0.09000
C668        C  0.19168297  0.14993342  0.67799569     0.29900
F669        F  0.16078547  0.13789614  0.67261893    -0.19500
H670        H  0.16941998  0.18246911  0.69920952     0.18300
H671        H  0.27664936  0.14177841  0.66965601     0.18300
F672        F  0.28536188  0.18599836  0.69690001    -0.19500
C673        C  0.34231211  0.66980912  0.89319802    -0.20900
C674        C  0.37404831  0.66289590  0.88476743    -0.09000
C675        C  0.37900574  0.63131759  0.87564190     0.29900
C676        C  0.35256248  0.60769928  0.87470997    -0.20900
C677        C  0.32064159  0.61477999  0.88289049    -0.09000
C678        C  0.31584710  0.64618397  0.89225934     0.29900
F679        F  0.28530554  0.65485111  0.89989523    -0.19500
H680        H  0.33754756  0.69397170  0.90012444     0.18300
H681        H  0.35732191  0.58360172  0.86770986     0.18300
F682        F  0.40954979  0.62272601  0.86795802    -0.19500
C683        C  0.04915992  0.49781111  0.93413323    -0.20900
C684        C  0.08255216  0.50669118  0.93933127    -0.09000
C685        C  0.08929529  0.51624940  0.95865479     0.29900
C686        C  0.06312594  0.51686510  0.97239083    -0.20900
C687        C  0.02971568  0.50874105  0.96705720    -0.09000
C688        C  0.02286011  0.49911825  0.94782022     0.29900
F689        F  0.99081380  0.49063910  0.94236707    -0.19500
H690        H  0.04332160  0.49038953  0.91937326     0.18300
H691        H  0.06882588  0.52405873  0.98721018     0.18300
F692        F  0.12131745  0.52408639  0.96444247    -0.19500
C693        C  0.18667640  0.34145189  0.79386127    -0.20900
C694        C  0.21817520  0.33442803  0.78507047    -0.09000
C695        C  0.24651705  0.35411530  0.79047045     0.29900
C696        C  0.24320009  0.38003819  0.80428425    -0.20900
C697        C  0.21167856  0.38699022  0.81311396    -0.09000
C698        C  0.18335275  0.36729719  0.80765169     0.29900
F699        F  0.15205842  0.37347254  0.81509216    -0.19500
H700        H  0.16428458  0.32698768  0.78998523     0.18300
H701        H  0.26555570  0.39452123  0.80814147     0.18300
F702        F  0.27738911  0.34878874  0.78224309    -0.19500
C703        C  0.09184837  0.91758242  0.87778801    -0.20900
C704        C  0.12330047  0.91148591  0.88681610    -0.09000
C705        C  0.12850506  0.87989764  0.89587944     0.29900
C706        C  0.10284548  0.85530945  0.89581436    -0.20900
C707        C  0.07156592  0.86135181  0.88661153    -0.09000
C708        C  0.06630552  0.89295587  0.87763033     0.29900
F709        F  0.03624637  0.90064122  0.86906703    -0.19500
H710        H  0.08667997  0.94168715  0.87093227     0.18300
H711        H  0.10788558  0.83113086  0.90263034     0.18300
F712        F  0.15865951  0.87203022  0.90425431    -0.19500
C713        C  0.26189516  0.14640648  0.80490837    -0.20900
C714        C  0.23233179  0.13319250  0.81342765    -0.09000
C715        C  0.20055498  0.14584081  0.80735063     0.29900
C716        C  0.19866719  0.17116480  0.79316217    -0.20900
C717        C  0.22828365  0.18453050  0.78472175    -0.09000
C718        C  0.26004359  0.17163394  0.79072725     0.29900
F719        F  0.28951944  0.18316028  0.78290302    -0.19500
H720        H  0.28666224  0.13697781  0.80907679     0.18300
H721        H  0.17390583  0.18055728  0.78893395     0.18300
F722        F  0.17123865  0.13471073  0.81550448    -0.19500
C723        C  0.48086335  0.96417273  0.94738458    -0.20900
C724        C  0.47401505  0.95749687  0.96699014    -0.09000
C725        C  0.46899743  0.92387443  0.97301846     0.29900
C726        C  0.47053351  0.89744008  0.95955846    -0.20900
C727        C  0.47775083  0.90399088  0.93995983    -0.09000
C728        C  0.48288647  0.93767432  0.93394767     0.29900
F729        F  0.48899143  0.94509990  0.91504950    -0.19500
H730        H  0.48488549  0.98997702  0.94253410     0.18300
H731        H  0.46662107  0.87170428  0.96453741     0.18300
F732        F  0.46221500  0.91669409  0.99188335    -0.19500
C733        C  0.46978207  0.06336084  0.04119054    -0.20900
C734        C  0.47665941  0.06900745  0.02148951    -0.09000
C735        C  0.48212524  0.10228314  0.01497752     0.29900
C736        C  0.48052604  0.12942758  0.02800012    -0.20900
C737        C  0.47292855  0.12395621  0.04768282    -0.09000
C738        C  0.46783155  0.09051972  0.05420372     0.29900
F739        F  0.46154068  0.08392212  0.07317812    -0.19500
H740        H  0.46537326  0.03786043  0.04643371     0.18300
H741        H  0.48449852  0.15485987  0.02256308     0.18300
F742        F  0.48905597  0.10847290  0.99601400    -0.19500
C743        C  0.40078169  0.98598675  0.96269955    -0.20900
C744        C  0.42295753  0.01368616  0.96436593    -0.09000
C745        C  0.41814909  0.04181870  0.95216521     0.29900
C746        C  0.39140175  0.04221438  0.93875737    -0.20900
C747        C  0.36896239  0.01455245  0.93716256    -0.09000
C748        C  0.37443779  0.98607334  0.94911826     0.29900
F749        F  0.35491444  0.95787770  0.94756645    -0.19500
H750        H  0.40375776  0.96415238  0.97205344     0.18300
H751        H  0.38805585  0.06449098  0.92981908     0.18300
F752        F  0.43946213  0.06883736  0.95311780    -0.19500
C753        C  0.85862960  0.09698461  0.10759111    -0.20900
C754        C  0.82578326  0.10613567  0.10159425    -0.09000
C755        C  0.82024999  0.13902844  0.09441043     0.29900
C756        C  0.84702258  0.16224629  0.09351489    -0.20900
C757        C  0.87975797  0.15329039  0.09981735    -0.09000
C758        C  0.88540865  0.12017861  0.10667782     0.29900
F759        F  0.91685414  0.10984650  0.11216241    -0.19500
H760        H  0.86374181  0.07166161  0.11286808     0.18300
H761        H  0.84178852  0.18763436  0.08839788     0.18300
F762        F  0.78875772  0.14939223  0.08904697    -0.19500
C763        C  0.57979915  0.03090206  0.03703337    -0.20900
C764        C  0.57959490  0.00577166  0.05159066    -0.09000
C765        C  0.55144130  0.98352365  0.05244605     0.29900
C766        C  0.52494549  0.98624583  0.03898719    -0.20900
C767        C  0.52559153  0.01126353  0.02459726    -0.09000
C768        C  0.55318389  0.03362596  0.02371099     0.29900
F769        F  0.55495937  0.05737574  0.00951101    -0.19500
H770        H  0.60074123  0.04840645  0.03559815     0.18300
H771        H  0.50383849  0.96865625  0.03972722     0.18300
F772        F  0.54913572  0.95894994  0.06608637    -0.19500
C773        C  0.61507196  0.40106345  0.08508861    -0.20900
C774        C  0.62158180  0.41750664  0.10279199    -0.09000
C775        C  0.60118803  0.40975115  0.11894605     0.29900
C776        C  0.57477109  0.38627754  0.11729095    -0.20900
C777        C  0.56806896  0.36991538  0.09957224    -0.09000
C778        C  0.58854605  0.37761563  0.08341057     0.29900
F779        F  0.58248114  0.36333792  0.06583530    -0.19500
H780        H  0.63016037  0.40682287  0.07237161     0.18300
H781        H  0.55998107  0.38046299  0.13010101     0.18300
F782        F  0.60739164  0.42387221  0.13655165    -0.19500
C783        C  0.88963160  0.49847588  0.01910677    -0.20900
C784        C  0.92220604  0.50953380  0.02432486    -0.09000
C785        C  0.92787682  0.52195117  0.04313810     0.29900
C786        C  0.90110235  0.52340527  0.05650660    -0.20900
C787        C  0.86842301  0.51197111  0.05141185    -0.09000
C788        C  0.86302857  0.49921381  0.03253800     0.29900
F789        F  0.83185482  0.48853292  0.02674996    -0.19500
H790        H  0.88490799  0.48904178  0.00458770     0.18300
H791        H  0.90600202  0.53323843  0.07091040     0.18300
F792        F  0.95914592  0.53319080  0.04842678    -0.19500
C793        C  0.82954722  0.34083608  0.38461488    -0.20900
C794        C  0.86242658  0.34930721  0.37830975    -0.09000
C795        C  0.86925898  0.38285726  0.37266852     0.29900
C796        C  0.84343393  0.40704639  0.37282060    -0.20900
C797        C  0.81037702  0.39846625  0.37871883    -0.09000
C798        C  0.80368828  0.36510246  0.38482058     0.29900
F799        F  0.77197708  0.35545572  0.39023537    -0.19500
H800        H  0.82356854  0.31514967  0.38895010     0.18300
H801        H  0.84949311  0.43270654  0.36847902     0.18300
F802        F  0.90103944  0.39266168  0.36748739    -0.19500
C803        C  0.54936511  0.53513940  0.43680992    -0.20900
C804        C  0.57280983  0.50815432  0.43597575    -0.09000
C805        C  0.56853330  0.48099880  0.44915890     0.29900
C806        C  0.54243054  0.48161410  0.46290879    -0.20900
C807        C  0.51968413  0.50883283  0.46383260    -0.09000
C808        C  0.52320908  0.53555789  0.45057825     0.29900
F809        F  0.50132509  0.56212393  0.45097307    -0.19500
H810        H  0.55125361  0.55635005  0.42696083     0.18300
H811        H  0.54042275  0.46097820  0.47319843     0.18300
F812        F  0.58955429  0.45385278  0.44923228    -0.19500
C813        C  0.75132058  0.84934733  0.19656622    -0.20900
C814        C  0.72150628  0.83424981  0.20371275    -0.09000
C815        C  0.69000778  0.84404855  0.19568783     0.29900
C816        C  0.68860381  0.86821307  0.18094666    -0.20900
C817        C  0.71832650  0.88343279  0.17386260    -0.09000
C818        C  0.74985584  0.87369310  0.18182268     0.29900
F819        F  0.77942202  0.88688695  0.17508686    -0.19500
H820        H  0.77589534  0.84225816  0.20234526     0.18300
H821        H  0.66397985  0.87535644  0.17528196     0.18300
F822        F  0.66032472  0.83039552  0.20199337    -0.19500
C823        C  0.70186161  0.65282690  0.17931080    -0.20900
C824        C  0.73371856  0.64079698  0.17312889    -0.09000
C825        C  0.76309698  0.65279011  0.18254303     0.29900
C826        C  0.76049460  0.67628604  0.19768202    -0.20900
C827        C  0.72864811  0.68847639  0.20384149    -0.09000
C828        C  0.69924347  0.67642705  0.19442714     0.29900
F829        F  0.66791867  0.68758455  0.19962127    -0.19500
H830        H  0.67880826  0.64423780  0.17227765     0.18300
H831        H  0.78363408  0.68485757  0.20464203     0.18300
F832        F  0.79435258  0.64110797  0.17762845    -0.19500
C833        C  0.74842730  0.64496607  0.31000332    -0.20900
C834        C  0.71669388  0.63784389  0.31854300    -0.09000
C835        C  0.68827590  0.65688534  0.31273361     0.29900
C836        C  0.69153830  0.68206388  0.29868358    -0.20900
C837        C  0.72306533  0.68904470  0.28994345    -0.09000
C838        C  0.75171416  0.67039608  0.29590292     0.29900
F839        F  0.78268380  0.67611043  0.28787473    -0.19500
H840        H  0.77079778  0.63083088  0.31423426     0.18300
H841        H  0.66895603  0.69590375  0.29447432     0.18300
F842        F  0.65685663  0.65036858  0.31991119    -0.19500
C843        C  0.55561649  0.12275124  0.38696545    -0.20900
C844        C  0.56314374  0.15535704  0.39395338    -0.09000
C845        C  0.59614974  0.16204432  0.40090308     0.29900
C846        C  0.62096275  0.13668218  0.40053396    -0.20900
C847        C  0.61353462  0.10431842  0.39314467    -0.09000
C848        C  0.58039533  0.09749376  0.38654610     0.29900
F849        F  0.57151886  0.06623516  0.38007964    -0.19500
H850        H  0.53032838  0.11656102  0.38188945     0.18300
H851        H  0.64631951  0.14272939  0.40556847     0.18300
F852        F  0.60504851  0.19331359  0.40732899    -0.19500
C853        C  0.89092267  0.99548875  0.43822655    -0.20900
C854        C  0.85812864  0.00405423  0.44466639    -0.09000
C855        C  0.85396604  0.01545437  0.46392713     0.29900
C856        C  0.88205798  0.01831504  0.47629374    -0.20900
C857        C  0.91475865  0.01026311  0.46968656    -0.09000
C858        C  0.91900430  0.99866431  0.45056942     0.29900
F859        F  0.95025589  0.98979092  0.44397447    -0.19500
H860        H  0.89494114  0.98667343  0.42352613     0.18300
H861        H  0.87833473  0.02687423  0.49107948     0.18300
F862        F  0.82270827  0.02287322  0.47106134    -0.19500
C863        C  0.69592726  0.87269910  0.31255795    -0.20900
C864        C  0.72721990  0.88705717  0.31802500    -0.09000
C865        C  0.75681559  0.87699261  0.30819557     0.29900
C866        C  0.75522070  0.85230505  0.29368897    -0.20900
C867        C  0.72412691  0.83708673  0.28855100    -0.09000
C868        C  0.69429282  0.84790422  0.29801208     0.29900
F869        F  0.66362650  0.83419682  0.29353989    -0.19500
H870        H  0.67274313  0.88010389  0.31986447     0.18300
H871        H  0.77855428  0.84510465  0.28646714     0.18300
F872        F  0.78726466  0.89155936  0.31222642    -0.19500
loop_ 
_geom_bond_atom_site_label_1 
_geom_bond_atom_site_label_2 
_geom_bond_distance 
_geom_bond_site_symmetry_2 
_ccdc_geom_bond_type 
N1            N2   1.322       .  A
N1            C5   1.345       .  A
N1           Cu9   2.066       .  S
N2            C3   1.346       .  A
N2           Cu8   2.089       .  S
C3            C4   1.389       .  A
C3            H6   1.081       .  S
C4            C5   1.383       .  A
C4          C864   1.482       .  S
C5            H7   1.082       .  S
Cu8          N11   2.089       .  S
Cu9          N19   2.066   1_565  S
Cu10         N12   2.071       .  S
Cu10         N18   2.071       .  S
N11          N12   1.322   1_565  A
N11          C15   1.348       .  A
N12          C13   1.344       .  A
C13          C14   1.385       .  A
C13          H16   1.082       .  S
C14          C15   1.390   1_545  A
C14         C854   1.487       .  S
C15          H17   1.081       .  S
N18          N19   1.320       .  A
N18          C22   1.345       .  A
N19          C20   1.343       .  A
C20          C21   1.386       .  A
C20          H23   1.081       .  S
C21          C22   1.386       .  A
C21         C847   1.481       .  S
C22          H24   1.082       .  S
O25         Cu33   1.985       .  S
O25          C35   1.274       .  A
O26         Cu33   1.988       .  S
O26          C36   1.276       .  A
O27         Cu33   2.025       .  S
O27          C37   1.280       .  A
O28         Cu33   2.027       .  S
O28          C38   1.281       .  A
O29         Cu34   2.000       .  S
O29          C38   1.277       .  A
O30         Cu34   1.998       .  S
O30          C37   1.277       .  A
O31         Cu34   2.034       .  S
O31          C36   1.281       .  A
O32         Cu34   2.029       .  S
O32          C35   1.281       .  A
Cu33        Cu34   2.367       .  S
C35         C814   1.485       .  S
C36         C837   1.486       .  S
C37         C867   1.487       .  S
C38         C827   1.488       .  S
N39          N40   1.321       .  A
N39          C43   1.345       .  A
N39         Cu47   2.065       .  S
N40          C41   1.345       .  A
N40         Cu46   2.087       .  S
C41          C42   1.390       .  A
C41          H44   1.080       .  S
C42          C43   1.385       .  A
C42         C834   1.486       .  S
C43          H45   1.082       .  S
Cu46         N49   2.087       .  S
Cu47         N57   2.064       .  S
Cu48         N50   2.069       .  S
Cu48         N56   2.068       .  S
N49          N50   1.320       .  A
N49          C53   1.347       .  A
N50          C51   1.342       .  A
C51          C52   1.391       .  A
C51          H54   1.078       .  S
C52          C53   1.395       .  A
C52         C804   1.499       .  S
C53          H55   1.080       .  S
N56          N57   1.321       .  A
N56          C60   1.345       .  A
N57          C58   1.342       .  A
C58          C59   1.384       .  A
C58          H61   1.082       .  S
C59          C60   1.386       .  A
C59         C797   1.479       .  S
C60          H62   1.081       .  S
N63          N64   1.322       .  A
N63          C67   1.344       .  A
N63         Cu71   2.071       .  S
N64          C65   1.348       .  A
N64         Cu70   2.090       .  S
C65          C66   1.390       .  A
C65          H68   1.081       .  S
C66          C67   1.385       .  A
C66         C824   1.487       .  S
C67          H69   1.082       .  S
Cu70         N73   2.090       .  S
Cu71         N81   2.070       .  S
Cu72         N74   2.070       .  S
Cu72         N80   2.069       .  S
N73          N74   1.322       .  A
N73          C77   1.348       .  A
N74          C75   1.344       .  A
C75          C76   1.385       .  A
C75          H78   1.081       .  S
C76          C77   1.389       .  A
C76         C787   1.485       .  S
C77          H79   1.081       .  S
N80          N81   1.320       .  A
N80          C84   1.344       .  A
N81          C82   1.344       .  A
C82          C83   1.386       .  A
C82          H85   1.082       .  S
C83          C84   1.386       .  A
C83         C774   1.481       .  S
C84          H86   1.082       .  S
N87          N88   1.321       .  A
N87          C91   1.343       .  A
N87         Cu95   2.062       .  S
N88          C89   1.345       .  A
N88         Cu94   2.084       .  S
C89          C90   1.390       .  A
C89          H92   1.081       .  S
C90          C91   1.384       .  A
C90         C817   1.484       .  S
C91          H93   1.081       .  S
Cu94         N97   2.084       .  S
Cu95        N105   2.062   1_565  S
Cu96         N98   2.069       .  S
Cu96        N104   2.068       .  S
N97          N98   1.320   1_565  A
N97         C101   1.346       .  A
N98          C99   1.342       .  A
C99         C100   1.390       .  A
C99         H102   1.080       .  S
C100        C101   1.394   1_545  A
C100        C764   1.497       .  S
C101        H103   1.078       .  S
N104        N105   1.320       .  A
N104        C108   1.344       .  A
N105        C106   1.342       .  A
C106        C107   1.385       .  A
C106        H109   1.082       .  S
C107        C108   1.387       .  A
C107        C754   1.480       .  S
C108        H110   1.081       .  S
C111        C112   1.413       .  A
C111        C116   1.400   1_544  A
C111        C767   1.479       .  S
C112        C113   1.404   1_554  A
C112        C734   1.483       .  S
C113        C114   1.405       .  A
C113        H118   1.085       .  S
C114        C115   1.417   1_545  A
C114        C744   1.489       .  S
C115        C116   1.402       .  A
C115        C724   1.481       .  S
C116        H117   1.085       .  S
N119        N120   1.322       .  A
N119        C123   1.344       .  A
N119       Cu127   2.070       .  S
N120        C121   1.346       .  A
N120       Cu126   2.085       .  S
C121        C122   1.390       .  A
C121        H124   1.081       .  S
C122        C123   1.386       .  A
C122        C714   1.487       .  S
C123        H125   1.080       .  S
Cu126       N129   2.085       .  S
Cu127       N137   2.069   1_545  S
Cu128       N130   2.075   1_565  S
Cu128       N136   2.074       .  S
N129        N130   1.322       .  A
N129        C133   1.347       .  A
N130        C131   1.343   1_545  A
C131        C132   1.387   1_565  A
C131        H134   1.080       .  S
C132        C133   1.390       .  A
C132        C747   1.490       .  S
C133        H135   1.082       .  S
N136        N137   1.319       .  A
N136        C140   1.346       .  A
N137        C138   1.343       .  A
C138        C139   1.388       .  A
C138        H141   1.081       .  S
C139        C140   1.390       .  A
C139        C704   1.489       .  S
C140        H142   1.080       .  S
N143        N144   1.322       .  A
N143        C147   1.346       .  A
N143       Cu151   2.080       .  S
N144        C145   1.347       .  A
N144       Cu150   2.090       .  S
C145        C146   1.391       .  A
C145        H148   1.080       .  S
C146        C147   1.389       .  A
C146        C697   1.494       .  S
C147        H149   1.081       .  S
Cu150       N153   2.089       .  S
Cu151       N161   2.080       .  S
Cu152       N154   2.072       .  S
Cu152       N160   2.072       .  S
N153        N154   1.322       .  A
N153        C157   1.348       .  A
N154        C155   1.344       .  A
C155        C156   1.385       .  A
C155        H158   1.082       .  S
C156        C157   1.388       .  A
C156        C684   1.484       .  S
C157        H159   1.082       .  S
N160        N161   1.321       .  A
N160        C164   1.344       .  A
N161        C162   1.345       .  A
C162        C163   1.389       .  A
C162        H165   1.082       .  S
C163        C164   1.387       .  A
C163        C677   1.487       .  S
C164        H166   1.081       .  S
O167       Cu175   2.030       .  S
O167        C177   1.281       .  A
O168       Cu175   2.033       .  S
O168        C178   1.281       .  A
O169       Cu175   1.995       .  S
O169        C179   1.275       .  A
O170       Cu175   1.988       .  S
O170        C180   1.275       .  A
O171       Cu176   2.031       .  S
O171        C180   1.281       .  A
O172       Cu176   2.031       .  S
O172        C179   1.282       .  A
O173       Cu176   2.003       .  S
O173        C178   1.277       .  A
O174       Cu176   1.998       .  S
O174        C177   1.277       .  A
Cu175      Cu176   2.366       .  S
C177        C664   1.489       .  S
C178        C694   1.491       .  S
C179        C717   1.488       .  S
C180        C654   1.487       .  S
N181        N182   1.321       .  A
N181        C185   1.346       .  A
N181       Cu189   2.075       .  S
N182        C183   1.345       .  A
N182       Cu188   2.081       .  S
C183        C184   1.389       .  A
C183        H186   1.081       .  S
C184        C185   1.387       .  A
C184        C667   1.489       .  S
C185        H187   1.082       .  S
Cu188       N191   2.081       .  S
Cu189       N199   2.075   1_545  S
Cu190       N192   2.071   1_565  S
Cu190       N198   2.071       .  S
N191        N192   1.321       .  A
N191        C195   1.346       .  A
N192        C193   1.345   1_545  A
C193        C194   1.386   1_565  A
C193        H196   1.082       .  S
C194        C195   1.387       .  A
C194        C644   1.484       .  S
C195        H197   1.081       .  S
N198        N199   1.321       .  A
N198        C202   1.344       .  A
N199        C200   1.344       .  A
C200        C201   1.387       .  A
C200        H203   1.082       .  S
C201        C202   1.387       .  A
C201        C634   1.485       .  S
C202        H204   1.081       .  S
N205        N206   1.321       .  A
N205        C209   1.346       .  A
N205       Cu213   2.069       .  S
N206        C207   1.344       .  A
N206       Cu212   2.080       .  S
C207        C208   1.388       .  A
C207        H210   1.081       .  S
C208        C209   1.386       .  A
C208        C657   1.484       .  S
C209        H211   1.081       .  S
Cu212       N215   2.081       .  S
Cu213       N223   2.070       .  S
Cu214       N216   2.077       .  S
Cu214       N222   2.077       .  S
N215        N216   1.321       .  A
N215        C219   1.346       .  A
N216        C217   1.344       .  A
C217        C218   1.389       .  A
C217        H220   1.081       .  S
C218        C219   1.390       .  A
C218        C624   1.490       .  S
C219        H221   1.080       .  S
N222        N223   1.321       .  A
N222        C226   1.346       .  A
N223        C224   1.343       .  A
C224        C225   1.387       .  A
C224        H227   1.081       .  S
C225        C226   1.388       .  A
C225        C614   1.485       .  S
C226        H228   1.082       .  S
C229        C230   1.414       .  A
C229        C234   1.406   1_654  A
C229        C594   1.487       .  S
C230        C231   1.402   1_554  A
C230        C784   1.480       .  S
C231        C232   1.405       .  A
C231        H236   1.085       .  S
C232        C233   1.416   1_655  A
C232        C604   1.488       .  S
C233        C234   1.405       .  A
C233        C687   1.483       .  S
C234        H235   1.085       .  S
O237       Cu245   1.977       .  S
O237        C247   1.274       .  A
O238       Cu245   1.978       .  S
O238        C248   1.274       .  A
O239       Cu245   2.029       .  S
O239        C249   1.281       .  A
O240       Cu245   2.030       .  S
O240        C250   1.281       .  A
O241       Cu246   1.985       .  S
O241        C250   1.275       .  A
O242       Cu246   1.982       .  S
O242        C249   1.275       .  A
O243       Cu246   2.031       .  S
O243        C248   1.282       .  A
O244       Cu246   2.033       .  S
O244        C247   1.281       .  A
Cu245      Cu246   2.367       .  S
C247        C574   1.483       .  S
C248        C554   1.483       .  S
C249        C584   1.483       .  S
C250        C564   1.485       .  S
N251        N252   1.320       .  A
N251        C255   1.342       .  A
N251       Cu259   2.056       .  S
N252        C253   1.345       .  A
N252       Cu258   2.081       .  S
C253        C254   1.391       .  A
C253        H256   1.081       .  S
C254        C255   1.383       .  A
C254        C577   1.483       .  S
C255        H257   1.082       .  S
Cu258       N261   2.081       .  S
Cu259       N269   2.057       .  S
Cu260       N262   2.076       .  S
Cu260       N268   2.076       .  S
N261        N262   1.324       .  A
N261        C265   1.346       .  A
N262        C263   1.343       .  A
C263        C264   1.383       .  A
C263        H266   1.082       .  S
C264        C265   1.385       .  A
C264        C727   1.478       .  S
C265        H267   1.082       .  S
N268        N269   1.319       .  A
N268        C272   1.346       .  A
N269        C270   1.341       .  A
C270        C271   1.385       .  A
C270        H273   1.081       .  S
C271        C272   1.390       .  A
C271        C674   1.485       .  S
C272        H274   1.081       .  S
N275        N276   1.321       .  A
N275        C279   1.343       .  A
N275       Cu283   2.065       .  S
N276        C277   1.346       .  A
N276       Cu282   2.081       .  S
C277        C278   1.390       .  A
C277        H280   1.080       .  S
C278        C279   1.384       .  A
C278        C567   1.484       .  S
C279        H281   1.082       .  S
Cu282       N285   2.082       .  S
Cu283       N293   2.065   1_655  S
Cu284       N286   2.080       .  S
Cu284       N292   2.079   1_655  S
N285        N286   1.322       .  A
N285        C289   1.346       .  A
N286        C287   1.345       .  A
C287        C288   1.388       .  A
C287        H290   1.081   1_655  S
C288        C289   1.389       .  A
C288        C607   1.489       .  S
C289        H291   1.082       .  S
N292        N293   1.320       .  A
N292        C296   1.346       .  A
N293        C294   1.343       .  A
C294        C295   1.387       .  A
C294        H297   1.081       .  S
C295        C296   1.389       .  A
C295        C707   1.487       .  S
C296        H298   1.082       .  S
N299        N300   1.321       .  A
N299        C303   1.343       .  A
N299       Cu307   2.064       .  S
N300        C301   1.344       .  A
N300       Cu306   2.080       .  S
C301        C302   1.389       .  A
C301        H304   1.080       .  S
C302        C303   1.384       .  A
C302        C587   1.484       .  S
C303        H305   1.082       .  S
Cu306       N309   2.080       .  S
Cu307       N317   2.064       .  S
Cu308       N310   2.068       .  S
Cu308       N316   2.068       .  S
N309        N310   1.322       .  A
N309        C313   1.348       .  A
N310        C311   1.342       .  A
C311        C312   1.382       .  A
C311        H314   1.082       .  S
C312        C313   1.386       .  A
C312        C547   1.477       .  S
C313        H315   1.082       .  S
N316        N317   1.319       .  A
N316        C320   1.344       .  A
N317        C318   1.343       .  A
C318        C319   1.387       .  A
C318        H321   1.081       .  S
C319        C320   1.388       .  A
C319        C637   1.484       .  S
C320        H322   1.081       .  S
N323        N324   1.320       .  A
N323        C327   1.342       .  A
N323       Cu331   2.062       .  S
N324        C325   1.345       .  A
N324       Cu330   2.073       .  S
C325        C326   1.388       .  A
C325        H328   1.081       .  S
C326        C327   1.384       .  A
C326        C557   1.481       .  S
C327        H329   1.082       .  S
Cu330       N333   2.073       .  S
Cu331       N341   2.062   1_655  S
Cu332       N334   2.079   1_455  S
Cu332       N340   2.079       .  S
N333        N334   1.322       .  A
N333        C337   1.343       .  A
N334        C335   1.345   1_655  A
C335        C336   1.389   1_455  A
C335        H338   1.081       .  S
C336        C337   1.388       .  A
C336        C534   1.489       .  S
C337        H339   1.080       .  S
N340        N341   1.321       .  A
N340        C344   1.347       .  A
N341        C342   1.342       .  A
C342        C343   1.384       .  A
C342        H345   1.082       .  S
C343        C344   1.389       .  A
C343        C617   1.482       .  S
C344        H346   1.081       .  S
N347        N348   1.321       .  A
N347        C351   1.343       .  A
N347       Cu355   2.062   1_455  S
N348        C349   1.344       .  A
N348       Cu354   2.077       .  S
C349        C350   1.388       .  A
C349        H352   1.082       .  S
C350        C351   1.384       .  A
C350        C524   1.482       .  S
C351        H353   1.081       .  S
Cu354       N357   2.077   1_455  S
Cu355       N365   2.063       .  S
Cu356       N358   2.076       .  S
Cu356       N364   2.075       .  S
N357        N358   1.321       .  A
N357        C361   1.345   1_655  A
N358        C359   1.344       .  A
C359        C360   1.389       .  A
C359        H362   1.080       .  S
C360        C361   1.389   1_655  A
C360        C597   1.490       .  S
C361        H363   1.081       .  S
N364        N365   1.321       .  A
N364        C368   1.344       .  A
N365        C366   1.343       .  A
C366        C367   1.385       .  A
C366        H369   1.081       .  S
C367        C368   1.387       .  A
C367        C757   1.481       .  S
C368        H370   1.082       .  S
N371        N372   1.321       .  A
N371        C375   1.344       .  A
N371       Cu379   2.068       .  S
N372        C373   1.347       .  A
N372       Cu378   2.086       .  S
C373        C374   1.390       .  A
C373        H376   1.081       .  S
C374        C375   1.386       .  A
C374        C514   1.487       .  S
C375        H377   1.081       .  S
Cu378       N381   2.086       .  S
Cu379       N389   2.067       .  S
Cu380       N382   2.072       .  S
Cu380       N388   2.072       .  S
N381        N382   1.323       .  A
N381        C385   1.346       .  A
N382        C383   1.344       .  A
C383        C384   1.385       .  A
C383        H386   1.082       .  S
C384        C385   1.388       .  A
C384        C737   1.483       .  S
C385        H387   1.082       .  S
N388        N389   1.320       .  A
N388        C392   1.345       .  A
N389        C390   1.342       .  A
C390        C391   1.386       .  A
C390        H393   1.082       .  S
C391        C392   1.388       .  A
C391        C777   1.484       .  S
C392        H394   1.081       .  S
O395       Cu403   2.026       .  S
O395        C405   1.281       .  A
O396       Cu403   2.023       .  S
O396        C406   1.281       .  A
O397       Cu403   2.000       .  S
O397        C407   1.276       .  A
O398       Cu403   1.998       .  S
O398        C408   1.276       .  A
O399       Cu404   2.031       .  S
O399        C408   1.282       .  A
O400       Cu404   2.034       .  S
O400        C407   1.282       .  A
O401       Cu404   1.985       .  S
O401        C406   1.274       .  A
O402       Cu404   1.985       .  S
O402        C405   1.274       .  A
Cu403      Cu404   2.366       .  S
C405        C527   1.484       .  S
C406        C504   1.483       .  S
C407        C494   1.491       .  S
C408        C517   1.489       .  S
N409        N410   1.322       .  A
N409        C413   1.345       .  A
N409       Cu417   2.071   1_455  S
N410        C411   1.348       .  A
N410       Cu416   2.092       .  S
C411        C412   1.390       .  A
C411        H414   1.081       .  S
C412        C413   1.385       .  A
C412        C497   1.488       .  S
C413        H415   1.081       .  S
Cu416       N419   2.092   1_455  S
Cu417       N427   2.070       .  S
Cu418       N420   2.058       .  S
Cu418       N426   2.058       .  S
N419        N420   1.320       .  A
N419        C423   1.346       .  A
N420        C421   1.342       .  A
C421        C422   1.387       .  A
C421        H424   1.079       .  S
C422        C423   1.394       .  A
C422        C487   1.493       .  S
C423        H425   1.081   1_655  S
N426        N427   1.320       .  A
N426        C430   1.343       .  A
N427        C428   1.343       .  A
C428        C429   1.387       .  A
C428        H431   1.081       .  S
C429        C430   1.384       .  A
C429        C794   1.478       .  S
C430        H432   1.082       .  S
N433        N434   1.321       .  A
N433        C437   1.343       .  A
N433       Cu441   2.061       .  S
N434        C435   1.344       .  A
N434       Cu440   2.079       .  S
C435        C436   1.390       .  A
C435        H438   1.081       .  S
C436        C437   1.385       .  A
C436        C507   1.485       .  S
C437        H439   1.080       .  S
Cu440       N443   2.079       .  S
Cu441       N451   2.061       .  S
Cu442       N444   2.068       .  S
Cu442       N450   2.068       .  S
N443        N444   1.322       .  A
N443        C447   1.347       .  A
N444        C445   1.342       .  A
C445        C446   1.384       .  A
C445        H448   1.081       .  S
C446        C447   1.388       .  A
C446        C477   1.482       .  S
C447        H449   1.081       .  S
N450        N451   1.319       .  A
N450        C454   1.345       .  A
N451        C452   1.341       .  A
C452        C453   1.386       .  A
C452        H455   1.082       .  S
C453        C454   1.388       .  A
C453        C844   1.483       .  S
C454        H456   1.081       .  S
C457        C458   1.413       .  A
C457        C462   1.404       .  A
C457        C484   1.478       .  S
C458        C459   1.403   1_545  A
C458        C857   1.483       .  S
C459        C460   1.404       .  A
C459        H464   1.085       .  S
C460        C461   1.413   1_665  A
C460        C537   1.478       .  S
C461        C462   1.402   1_455  A
C461        C647   1.484       .  S
C462        H463   1.085   1_655  S
C465        C466   1.413       .  A
C465        C470   1.403       .  A
C465        C807   1.485       .  S
C466        C467   1.403       .  A
C466        C474   1.476       .  S
C467        C468   1.401       .  A
C467        H472   1.085       .  S
C468        C469   1.413       .  A
C468        C627   1.480       .  S
C469        C470   1.405       .  A
C469        C544   1.481       .  S
C470        H471   1.085       .  S
C473        C474   1.402       .  A
C473        C478   1.400       .  A
C473        H480   1.083       .  S
C474        C475   1.401       .  A
C475        C476   1.395       .  A
C475        F482   1.357       .  S
C476        C477   1.406       .  A
C476        H481   1.082       .  S
C477        C478   1.410       .  A
C478        F479   1.357       .  S
C483        C484   1.399       .  A
C483        C488   1.398       .  A
C483        H490   1.084       .  S
C484        C485   1.401       .  A
C485        C486   1.397       .  A
C485        F492   1.357   1_655  S
C486        C487   1.409       .  A
C486        H491   1.081   1_655  S
C487        C488   1.416       .  A
C488        F489   1.355       .  S
C493        C494   1.406       .  A
C493        C498   1.403       .  A
C493        H500   1.083       .  S
C494        C495   1.412       .  A
C495        C496   1.399       .  A
C495        F502   1.357       .  S
C496        C497   1.403       .  A
C496        H501   1.083       .  S
C497        C498   1.410       .  A
C498        F499   1.357       .  S
C503        C504   1.404       .  A
C503        C508   1.399       .  A
C503        H510   1.083       .  S
C504        C505   1.410       .  A
C505        C506   1.394       .  A
C505        F512   1.358       .  S
C506        C507   1.403       .  A
C506        H511   1.082       .  S
C507        C508   1.411       .  A
C508        F509   1.356       .  S
C513        C514   1.404       .  A
C513        C518   1.399       .  A
C513        H520   1.083       .  S
C514        C515   1.410       .  A
C515        C516   1.401       .  A
C515        F522   1.356       .  S
C516        C517   1.405       .  A
C516        H521   1.083       .  S
C517        C518   1.412       .  A
C518        F519   1.357       .  S
C523        C524   1.402       .  A
C523        C528   1.395       .  A
C523        H530   1.083       .  S
C524        C525   1.409       .  A
C525        C526   1.399       .  A
C525        F532   1.357       .  S
C526        C527   1.405       .  A
C526        H531   1.083       .  S
C527        C528   1.411       .  A
C528        F529   1.358       .  S
C533        C534   1.408   1_455  A
C533        C538   1.397       .  A
C533        H540   1.081       .  S
C534        C535   1.412       .  A
C535        C536   1.398       .  A
C535        F542   1.356       .  S
C536        C537   1.400       .  A
C536        H541   1.083       .  S
C537        C538   1.403   1_655  A
C538        F539   1.358       .  S
C543        C544   1.405       .  A
C543        C548   1.400       .  A
C543        H550   1.083       .  S
C544        C545   1.403       .  A
C545        C546   1.395       .  A
C545        F552   1.357       .  S
C546        C547   1.404       .  A
C546        H551   1.083       .  S
C547        C548   1.407       .  A
C548        F549   1.357       .  S
C553        C554   1.408       .  A
C553        C558   1.395       .  A
C553        H560   1.083       .  S
C554        C555   1.407       .  A
C555        C556   1.400       .  A
C555        F562   1.357       .  S
C556        C557   1.407       .  A
C556        H561   1.083       .  S
C557        C558   1.406       .  A
C558        F559   1.357       .  S
C563        C564   1.408       .  A
C563        C568   1.397       .  A
C563        H570   1.083       .  S
C564        C565   1.407       .  A
C565        C566   1.400       .  A
C565        F572   1.357       .  S
C566        C567   1.407       .  A
C566        H571   1.082       .  S
C567        C568   1.406       .  A
C568        F569   1.357       .  S
C573        C574   1.407       .  A
C573        C578   1.392       .  A
C573        H580   1.083       .  S
C574        C575   1.407       .  A
C575        C576   1.402       .  A
C575        F582   1.357       .  S
C576        C577   1.409       .  A
C576        H581   1.082       .  S
C577        C578   1.405       .  A
C578        F579   1.356       .  S
C583        C584   1.407       .  A
C583        C588   1.393       .  A
C583        H590   1.083       .  S
C584        C585   1.407       .  A
C585        C586   1.401       .  A
C585        F592   1.357       .  S
C586        C587   1.408       .  A
C586        H591   1.082       .  S
C587        C588   1.406       .  A
C588        F589   1.356       .  S
C593        C594   1.403       .  A
C593        C598   1.398       .  A
C593        H600   1.082       .  S
C594        C595   1.404   1_655  A
C595        C596   1.400       .  A
C595        F602   1.357       .  S
C596        C597   1.408   1_455  A
C596        H601   1.082       .  S
C597        C598   1.411       .  A
C598        F599   1.356       .  S
C603        C604   1.403   1_455  A
C603        C608   1.399       .  A
C603        H610   1.083       .  S
C604        C605   1.406       .  A
C605        C606   1.399       .  A
C605        F612   1.358       .  S
C606        C607   1.407       .  A
C606        H611   1.082       .  S
C607        C608   1.411   1_655  A
C608        F609   1.356       .  S
C613        C614   1.407       .  A
C613        C618   1.400       .  A
C613        H620   1.082       .  S
C614        C615   1.409       .  A
C615        C616   1.396       .  A
C615        F622   1.356       .  S
C616        C617   1.404       .  A
C616        H621   1.083       .  S
C617        C618   1.407       .  A
C618        F619   1.357       .  S
C623        C624   1.409       .  A
C623        C628   1.398       .  A
C623        H630   1.081       .  S
C624        C625   1.412       .  A
C625        C626   1.400       .  A
C625        F632   1.356       .  S
C626        C627   1.401       .  A
C626        H631   1.083       .  S
C627        C628   1.402       .  A
C628        F629   1.357       .  S
C633        C634   1.405       .  A
C633        C638   1.397       .  A
C633        H640   1.083       .  S
C634        C635   1.409       .  A
C635        C636   1.398       .  A
C635        F642   1.356       .  S
C636        C637   1.405       .  A
C636        H641   1.082       .  S
C637        C638   1.408       .  A
C638        F639   1.356       .  S
C643        C644   1.406       .  A
C643        C648   1.399       .  A
C643        H650   1.083       .  S
C644        C645   1.410       .  A
C645        C646   1.400       .  A
C645        F652   1.357       .  S
C646        C647   1.402       .  A
C646        H651   1.083       .  S
C647        C648   1.405       .  A
C648        F649   1.357   1_455  S
C653        C654   1.407       .  A
C653        C658   1.403       .  A
C653        H660   1.083       .  S
C654        C655   1.411       .  A
C655        C656   1.394       .  A
C655        F662   1.358       .  S
C656        C657   1.402       .  A
C656        H661   1.082       .  S
C657        C658   1.409       .  A
C658        F659   1.357       .  S
C663        C664   1.407       .  A
C663        C668   1.397       .  A
C663        H670   1.083       .  S
C664        C665   1.409       .  A
C665        C666   1.403       .  A
C665        F672   1.357       .  S
C666        C667   1.408       .  A
C666        H671   1.082       .  S
C667        C668   1.408       .  A
C668        F669   1.356       .  S
C673        C674   1.404       .  A
C673        C678   1.399       .  A
C673        H680   1.082       .  S
C674        C675   1.409       .  A
C675        C676   1.398       .  A
C675        F682   1.357       .  S
C676        C677   1.405       .  A
C676        H681   1.082       .  S
C677        C678   1.410       .  A
C678        F679   1.356       .  S
C683        C684   1.406       .  A
C683        C688   1.401       .  A
C683        H690   1.083       .  S
C684        C685   1.409       .  A
C685        C686   1.399       .  A
C685        F692   1.357       .  S
C686        C687   1.402       .  A
C686        H691   1.083       .  S
C687        C688   1.405       .  A
C688        F689   1.357   1_455  S
C693        C694   1.407       .  A
C693        C698   1.400       .  A
C693        H700   1.083       .  S
C694        C695   1.408       .  A
C695        C696   1.403       .  A
C695        F702   1.357       .  S
C696        C697   1.409       .  A
C696        H701   1.082       .  S
C697        C698   1.409       .  A
C698        F699   1.356       .  S
C703        C704   1.406       .  A
C703        C708   1.398       .  A
C703        H710   1.082       .  S
C704        C705   1.410       .  A
C705        C706   1.400       .  A
C705        F712   1.356       .  S
C706        C707   1.405       .  A
C706        H711   1.082       .  S
C707        C708   1.408       .  A
C708        F709   1.356       .  S
C713        C714   1.404       .  A
C713        C718   1.398       .  A
C713        H720   1.082       .  S
C714        C715   1.410       .  A
C715        C716   1.401       .  A
C715        F722   1.356       .  S
C716        C717   1.405       .  A
C716        H721   1.083       .  S
C717        C718   1.412       .  A
C718        F719   1.358       .  S
C723        C724   1.403       .  A
C723        C728   1.398       .  A
C723        H730   1.084       .  S
C724        C725   1.405       .  A
C725        C726   1.397       .  A
C725        F732   1.358       .  S
C726        C727   1.405       .  A
C726        H731   1.083       .  S
C727        C728   1.407       .  A
C728        F729   1.357       .  S
C733        C734   1.403       .  A
C733        C738   1.399       .  A
C733        H740   1.083       .  S
C734        C735   1.405       .  A
C735        C736   1.398       .  A
C735        F742   1.358   1_554  S
C736        C737   1.406       .  A
C736        H741   1.083       .  S
C737        C738   1.409       .  A
C738        F739   1.357       .  S
C743        C744   1.403   1_565  A
C743        C748   1.397       .  A
C743        H750   1.083       .  S
C744        C745   1.406       .  A
C745        C746   1.401       .  A
C745        F752   1.358       .  S
C746        C747   1.408       .  A
C746        H751   1.082       .  S
C747        C748   1.411   1_545  A
C748        F749   1.356       .  S
C753        C754   1.404       .  A
C753        C758   1.397       .  A
C753        H760   1.083       .  S
C754        C755   1.407       .  A
C755        C756   1.397       .  A
C755        F762   1.357       .  S
C756        C757   1.405       .  A
C756        H761   1.082       .  S
C757        C758   1.408       .  A
C758        F759   1.357       .  S
C763        C764   1.412       .  A
C763        C768   1.397       .  A
C763        H770   1.079       .  S
C764        C765   1.414   1_545  A
C765        C766   1.400       .  A
C765        F772   1.354       .  S
C766        C767   1.400   1_565  A
C766        H771   1.083       .  S
C767        C768   1.400       .  A
C768        F769   1.358       .  S
C773        C774   1.405       .  A
C773        C778   1.399       .  A
C773        H780   1.083       .  S
C774        C775   1.406       .  A
C775        C776   1.396       .  A
C775        F782   1.357       .  S
C776        C777   1.406       .  A
C776        H781   1.082       .  S
C777        C778   1.408       .  A
C778        F779   1.357       .  S
C783        C784   1.400       .  A
C783        C788   1.398       .  A
C783        H790   1.083       .  S
C784        C785   1.404       .  A
C785        C786   1.401       .  A
C785        F792   1.357       .  S
C786        C787   1.407       .  A
C786        H791   1.083       .  S
C787        C788   1.410       .  A
C788        F789   1.356       .  S
C793        C794   1.405       .  A
C793        C798   1.398       .  A
C793        H800   1.083       .  S
C794        C795   1.406       .  A
C795        C796   1.395       .  A
C795        F802   1.357       .  S
C796        C797   1.404       .  A
C796        H801   1.083       .  S
C797        C798   1.407       .  A
C798        F799   1.357       .  S
C803        C804   1.411       .  A
C803        C808   1.400       .  A
C803        H810   1.081       .  S
C804        C805   1.416       .  A
C805        C806   1.398       .  A
C805        F812   1.354       .  S
C806        C807   1.400       .  A
C806        H811   1.083       .  S
C807        C808   1.403       .  A
C808        F809   1.357       .  S
C813        C814   1.405       .  A
C813        C818   1.400       .  A
C813        H820   1.083       .  S
C814        C815   1.412       .  A
C815        C816   1.395       .  A
C815        F822   1.358       .  S
C816        C817   1.402       .  A
C816        H821   1.082       .  S
C817        C818   1.410       .  A
C818        F819   1.356       .  S
C823        C824   1.407       .  A
C823        C828   1.401       .  A
C823        H830   1.082       .  S
C824        C825   1.407       .  A
C825        C826   1.399       .  A
C825        F832   1.357       .  S
C826        C827   1.408       .  A
C826        H831   1.083       .  S
C827        C828   1.409       .  A
C828        F829   1.357       .  S
C833        C834   1.409       .  A
C833        C838   1.404       .  A
C833        H840   1.083       .  S
C834        C835   1.406       .  A
C835        C836   1.394       .  A
C835        F842   1.356       .  S
C836        C837   1.406       .  A
C836        H841   1.083       .  S
C837        C838   1.408       .  A
C838        F839   1.357       .  S
C843        C844   1.405       .  A
C843        C848   1.395       .  A
C843        H850   1.082       .  S
C844        C845   1.409       .  A
C845        C846   1.399       .  A
C845        F852   1.356       .  S
C846        C847   1.405       .  A
C846        H851   1.083       .  S
C847        C848   1.407       .  A
C848        F849   1.357       .  S
C853        C854   1.406   1_565  A
C853        C858   1.400       .  A
C853        H860   1.083       .  S
C854        C855   1.411       .  A
C855        C856   1.400       .  A
C855        F862   1.357       .  S
C856        C857   1.402       .  A
C856        H861   1.083       .  S
C857        C858   1.405   1_545  A
C858        F859   1.357       .  S
C863        C864   1.406       .  A
C863        C868   1.402       .  A
C863        H870   1.082       .  S
C864        C865   1.405       .  A
C865        C866   1.397       .  A
C865        F872   1.357       .  S
C866        C867   1.408       .  A
C866        H871   1.082       .  S
C867        C868   1.409       .  A
C868        F869   1.357       .  S
