geometry optimzed in LAMMPS
_audit_creation_date              2020-11-30 
_audit_creation_method            'lammps2cif' 
_symmetry_space_group_name_H-M    'P1' 
_symmetry_Int_Tables_number       1 
_symmetry_cell_setting            triclinic 
loop_ 
_symmetry_equiv_pos_as_xyz 
  x,y,z 
_cell_length_a                    47.82134369 
_cell_length_b                    47.81254397674715 
_cell_length_c                    45.356358290618466 
_cell_angle_alpha                 90.00802582806185 
_cell_angle_beta                  90.01206586082918 
_cell_angle_gamma                 89.99617135722833 
loop_ 
_atom_site_label 
_atom_site_type_symbol 
_atom_site_fract_x 
_atom_site_fract_y 
_atom_site_fract_z 
_atom_site_charge 
C1          C  0.53202388  0.22563556  0.49840590     0.04900
C2          C  0.54865336  0.23571028  0.02648480    -0.11300
C3          C  0.57762778  0.24043683  0.02626274     0.02400
C4          C  0.59170275  0.24237490  0.99914732    -0.09800
C5          C  0.57631786  0.22879939  0.47166380     0.04800
C6          C  0.54694238  0.22623665  0.47167407    -0.09200
H7          H  0.53771802  0.23533042  0.04739849     0.10400
H8          H  0.61397938  0.24661640  0.99899044     0.08000
H9          H  0.53566735  0.22519392  0.45100816     0.07800
Fe10       Fe  0.76972133  0.26901974  0.21253126     1.65800
Fe11       Fe  0.76783685  0.26602545  0.28741724     1.73200
Fe12       Fe  0.72514317  0.31178533  0.25086665     1.54400
O13         O  0.74379947  0.33513627  0.21752896    -0.80000
O14         O  0.72800836  0.25792262  0.30261739    -0.78300
O15         O  0.77730226  0.30893198  0.19759626    -0.82500
O16         O  0.73107803  0.26791730  0.19222695    -0.77300
O17         O  0.74679842  0.33590705  0.28142046    -0.79100
O18         O  0.76887885  0.22558142  0.27158348    -0.81800
C19         C  0.70627714  0.27583376  0.19778272     0.98900
C20         C  0.76423645  0.33187500  0.19993830     1.06400
O21         O  0.75414705  0.28227905  0.25025467    -1.10800
O22         O  0.80923817  0.27267915  0.27642153    -0.73200
O23         O  0.81046234  0.26868171  0.22767481    -0.76700
O24         O  0.70039592  0.29075293  0.22022249    -0.77400
C25         C  0.82266441  0.27177609  0.25230439     0.97800
O26         O  0.76411109  0.22734216  0.22298294    -0.75400
O27         O  0.76853600  0.30397594  0.30871751    -0.80600
C28         C  0.70564920  0.27218070  0.30185365     1.00500
C29         C  0.76102674  0.32900783  0.30396888     1.06400
O30         O  0.70240306  0.29305631  0.28478161    -0.76200
C31         C  0.76592308  0.21361548  0.24683686     1.04700
C32         C  0.80298478  0.50017796  0.99841380     0.04900
C33         C  0.80633853  0.48772205  0.47161127    -0.11300
C34         C  0.80494772  0.45852089  0.47175209     0.02400
C35         C  0.79434635  0.44236367  0.00125572    -0.09800
C36         C  0.79985759  0.45726414  0.02745343     0.04800
C37         C  0.80440420  0.48632054  0.02564296    -0.09200
H38         H  0.80478530  0.49898124  0.45092528     0.10400
H39         H  0.78981266  0.42018079  0.00202974     0.08000
H40         H  0.80863564  0.49838444  0.04534938     0.07800
C41         C  0.77219352  0.00264210  0.24235543     0.04900
C42         C  0.77761435  0.98859100  0.26895212    -0.11300
C43         C  0.78140364  0.95946556  0.26940141     0.02400
C44         C  0.78014025  0.94456672  0.24270943    -0.09800
C45         C  0.77476909  0.95819920  0.21582621     0.04800
C46         C  0.77048330  0.98729353  0.21598407    -0.09200
H47         H  0.77948132  0.00045728  0.28921075     0.10400
H48         H  0.78346997  0.92217527  0.24288590     0.08000
H49         H  0.76566641  0.99808875  0.19561317     0.07800
Fe50       Fe  0.79428559  0.76466113  0.03064371     1.65800
Fe51       Fe  0.79213128  0.76567900  0.45598705     1.73200
Fe52       Fe  0.83905342  0.80739847  0.49194903     1.54400
O53         O  0.82271041  0.82919819  0.02774840    -0.80000
O54         O  0.83075158  0.75583432  0.43848820    -0.78300
O55         O  0.78762515  0.80447424  0.04674384    -0.82500
O56         O  0.83324949  0.76273742  0.05030468    -0.77300
O57         O  0.81774529  0.83372202  0.46352997    -0.79100
O58         O  0.78975653  0.72494006  0.47087579    -0.81800
C59         C  0.85817501  0.76958620  0.04390696     0.98900
C60         C  0.80225540  0.82657301  0.04541358     1.06400
O61         O  0.80821661  0.78001471  0.49299653    -1.10800
O62         O  0.75149441  0.77371300  0.46905118    -0.73200
O63         O  0.75321218  0.76466318  0.01663699    -0.76700
O64         O  0.86410344  0.78375250  0.02105247    -0.77400
C65         C  0.73901113  0.77182635  0.49366923     0.97800
O66         O  0.79946549  0.72345281  0.01843114    -0.75400
O67         O  0.79287858  0.80442874  0.43590374    -0.80600
C68         C  0.85398866  0.76861093  0.43894109     1.00500
C69         C  0.80248674  0.82868522  0.44119602     1.06400
O70         O  0.85898112  0.78861961  0.45657504    -0.76200
C71         C  0.79624679  0.71053358  0.99421911     1.04700
C72         C  0.02888701  0.72473271  0.24263829     0.04900
C73         C  0.01381320  0.72560263  0.26937376    -0.11300
C74         C  0.98499674  0.73181264  0.26966018     0.02400
C75         C  0.97157540  0.73767598  0.24278063    -0.09800
C76         C  0.98591726  0.73600538  0.21591492     0.04800
C77         C  0.01446038  0.72924264  0.21598234    -0.09200
H78         H  0.02457199  0.72168629  0.28994427     0.10400
H79         H  0.94965003  0.74335846  0.24263723     0.08000
H80         H  0.02551613  0.72786481  0.19519220     0.07800
C81         C  0.29873508  0.99027818  0.25798791     0.04900
C82         C  0.29814538  0.00732540  0.23263615    -0.11300
C83         C  0.29516929  0.03649450  0.23514940     0.02400
C84         C  0.29341002  0.04855560  0.26324872    -0.09800
C85         C  0.29382353  0.03191154  0.28865410     0.04800
C86         C  0.29669763  0.00285276  0.28596345    -0.09200
H87         H  0.29930385  0.99786162  0.21096700     0.10400
H88         H  0.29121118  0.07103605  0.26538150     0.08000
H89         H  0.29613398  0.98996359  0.30560689     0.07800
Fe90       Fe  0.26774175  0.22557575  0.04248477     1.65800
Fe91       Fe  0.26641848  0.22105229  0.46932889     1.73200
Fe92       Fe  0.22253706  0.17937533  0.50879647     1.54400
O93         O  0.24268353  0.15931971  0.04361806    -0.80000
O94         O  0.22701087  0.22914184  0.45303265    -0.78300
O95         O  0.27531186  0.18748494  0.06178095    -0.82500
O96         O  0.22848783  0.22758141  0.06159656    -0.77300
O97         O  0.24561730  0.15222965  0.48308177    -0.79100
O98         O  0.26846892  0.26255286  0.48193442    -0.81800
C99         C  0.20401086  0.21856840  0.05617119     0.98900
C100        C  0.26235351  0.16438933  0.06169772     1.06400
O101        O  0.25181914  0.20825736  0.50736954    -1.10800
O102        O  0.30732375  0.21428201  0.48168965    -0.73200
O103        O  0.30901311  0.22547552  0.02841973    -0.76700
O104        O  0.19893517  0.20216127  0.03478192    -0.77400
C105        C  0.32047707  0.21912687  0.50543512     0.97800
O106        O  0.26188929  0.26581179  0.02777377    -0.75400
O107        O  0.26641272  0.18127312  0.45153280    -0.80600
C108        C  0.20495319  0.21444361  0.45352420     1.00500
C109        C  0.25970114  0.15679876  0.45983447     1.06400
O110        O  0.20163201  0.19419870  0.47141628    -0.76200
C111        C  0.26394492  0.27764222  0.00287166     1.04700
C112        C  0.03303765  0.25936548  0.25428636     0.04900
C113        C  0.04775218  0.25695845  0.28108309    -0.11300
C114        C  0.07662524  0.25109720  0.28117918     0.02400
C115        C  0.09047354  0.24749693  0.25407756    -0.09800
C116        C  0.07610753  0.25041848  0.22729046     0.04800
C117        C  0.04752321  0.25657424  0.22754590    -0.09200
H118        H  0.03668560  0.25935641  0.30176430     0.10400
H119        H  0.11253869  0.24233157  0.25376174     0.08000
H120        H  0.03639701  0.25863823  0.20682894     0.07800
C121        C  0.27673610  0.48641060  0.49664066     0.04900
C122        C  0.27495571  0.50421003  0.02409752    -0.11300
C123        C  0.27779532  0.53342679  0.02230126     0.02400
C124        C  0.28309825  0.54462067  0.49338409    -0.09800
C125        C  0.28023978  0.52891624  0.46751814     0.04800
C126        C  0.27698413  0.49988949  0.46915207    -0.09200
H127        H  0.27439207  0.49408398  0.04546048     0.10400
H128        H  0.28536841  0.56714755  0.49199582     0.08000
H129        H  0.27516459  0.48778306  0.44903263     0.07800
Fe130      Fe  0.29327265  0.72356169  0.28631390     1.65800
Fe131      Fe  0.29435422  0.72553804  0.21103501     1.73200
Fe132      Fe  0.33821380  0.68101334  0.24803635     1.54400
O133        O  0.36107470  0.70024943  0.28109065    -0.80000
O134        O  0.28994493  0.68674578  0.19188559    -0.78300
O135        O  0.33231075  0.72943519  0.30427332    -0.82500
O136        O  0.29045848  0.68398645  0.30415766    -0.77300
O137        O  0.36248890  0.70198265  0.21768544    -0.79100
O138        O  0.25293344  0.72240571  0.22405839    -0.81800
C139        C  0.30056124  0.65999842  0.29879667     0.98900
C140        C  0.35626465  0.71855091  0.30075327     1.06400
O141        O  0.30868066  0.71003769  0.24844010    -1.10800
O142        O  0.29728263  0.76651735  0.22522304    -0.73200
O143        O  0.29406437  0.76526199  0.27400584    -0.76700
O144        O  0.31780585  0.65587674  0.27803278    -0.77400
C145        C  0.29629277  0.77874513  0.25002342     0.97800
O146        O  0.25234273  0.71886807  0.27288142    -0.75400
O147        O  0.33377109  0.72998626  0.19286309    -0.80600
C148        C  0.30140566  0.66299644  0.19488913     1.00500
C149        C  0.35779163  0.71941763  0.19720347     1.06400
O150        O  0.31936134  0.65809009  0.21485524    -0.76200
C151        C  0.23987514  0.71916180  0.24820738     1.04700
C152        C  0.52809412  0.75751593  0.49798020     0.04900
C153        C  0.51497035  0.75324565  0.02437140    -0.11300
C154        C  0.48608443  0.74801673  0.02504637     0.02400
C155        C  0.46996553  0.74953962  0.49882503    -0.09800
C156        C  0.48386650  0.75197490  0.47178895     0.04800
C157        C  0.51281639  0.75648104  0.47149608    -0.09200
H158        H  0.52653100  0.75394510  0.04489909     0.10400
H159        H  0.44747483  0.74668611  0.49910559     0.08000
H160        H  0.52351413  0.75865339  0.45057238     0.07800
C161        C  0.43533482  0.72114218  0.41458724     0.14400
C162        C  0.43658473  0.74124874  0.39211344     0.01300
C163        C  0.45392737  0.76472296  0.39545854     0.16300
C164        C  0.46974993  0.76813971  0.42118891     0.25700
C165        C  0.46813553  0.74821581  0.44396930    -0.40600
C166        C  0.45097678  0.72455706  0.44028378     0.32800
C167        C  0.41854717  0.73809069  0.36597874     0.01400
F168        F  0.45536183  0.78433598  0.37387231    -0.12900
F169        F  0.44949998  0.70460436  0.46153935    -0.13400
C170        C  0.39520047  0.75546255  0.36245980     0.16300
C171        C  0.37566424  0.75000492  0.34029810     0.25700
C172        C  0.37906835  0.72683028  0.32129049    -0.40500
C173        C  0.40354817  0.71048087  0.32388539     0.32700
C174        C  0.42298990  0.71603073  0.34616362     0.14400
F175        F  0.39053209  0.77683814  0.38155715    -0.12900
F176        F  0.40816513  0.68828298  0.30586184    -0.13400
F177        F  0.35302849  0.76703053  0.33811015    -0.15700
F178        F  0.44576350  0.69928631  0.34906426    -0.14300
F179        F  0.41835699  0.69851213  0.41190384    -0.14300
F180        F  0.48593997  0.79128345  0.42423629    -0.15700
C181        C  0.45524947  0.76192989  0.10069563     0.14400
C182        C  0.43875197  0.73792116  0.10489322     0.01300
C183        C  0.43902482  0.71673741  0.08340810     0.16300
C184        C  0.45506556  0.71974083  0.05787577     0.25700
C185        C  0.47110876  0.74401009  0.05330869    -0.40600
C186        C  0.47140164  0.76492134  0.07511825     0.32800
C187        C  0.42024806  0.73527106  0.13092802     0.01400
F188        F  0.42295925  0.69352402  0.08669216    -0.12900
F189        F  0.48644010  0.78870047  0.07110967    -0.13400
C190        C  0.39831908  0.75435375  0.13533578     0.16300
C191        C  0.37882696  0.75008043  0.15789272     0.25700
C192        C  0.38081567  0.72649329  0.17645080    -0.40500
C193        C  0.40375575  0.70819258  0.17285614     0.32700
C194        C  0.42317087  0.71253999  0.15025895     0.14400
F195        F  0.39491771  0.77638586  0.11679368    -0.12900
F196        F  0.40671656  0.68518755  0.19013287    -0.13400
F197        F  0.35761090  0.76871841  0.16103349    -0.15700
F198        F  0.44448752  0.69407145  0.14671614    -0.14300
F199        F  0.45550190  0.78254611  0.12127879    -0.14300
F200        F  0.45480635  0.69897392  0.03744179    -0.15700
C201        C  0.30741418  0.56897567  0.40216554     0.14400
C202        C  0.28261706  0.57476078  0.38655090     0.01300
C203        C  0.25712825  0.56377999  0.39693122     0.16300
C204        C  0.25641018  0.54809627  0.42298147     0.25700
C205        C  0.28113073  0.54308786  0.43879146    -0.40600
C206        C  0.30664486  0.55318989  0.42801607     0.32800
C207        C  0.28346258  0.59413468  0.36103959     0.01400
F208        F  0.23293105  0.56861577  0.38211941    -0.12900
F209        F  0.33073987  0.54829856  0.44300194    -0.13400
C210        C  0.30250854  0.58970202  0.33793434     0.16300
C211        C  0.30730000  0.61054627  0.31691993     0.25700
C212        C  0.29272160  0.63620554  0.31831003    -0.40500
C213        C  0.27186926  0.63949837  0.34007384     0.32700
C214        C  0.26751497  0.61880937  0.36133921     0.14400
F215        F  0.31728585  0.56548740  0.33635913    -0.12900
F216        F  0.25627856  0.66319126  0.34161624    -0.13400
F217        F  0.32718434  0.60593282  0.29611597    -0.15700
F218        F  0.24891746  0.62376112  0.38335056    -0.14300
F219        F  0.33224935  0.57979814  0.39320196    -0.14300
F220        F  0.23151802  0.53866496  0.43339534    -0.15700
C221        C  0.26695141  0.62461128  0.13115200     0.14400
C222        C  0.28596189  0.60277286  0.12630285     0.01300
C223        C  0.30842517  0.59906116  0.14578088     0.16300
C224        C  0.31262995  0.61768653  0.16912990     0.25700
C225        C  0.29451229  0.64068452  0.17320326    -0.40600
C226        C  0.27112579  0.64341229  0.15437723     0.32800
C227        C  0.28357948  0.58498140  0.09981444     0.01400
F228        F  0.32676094  0.57773079  0.14164309    -0.12900
F229        F  0.25258192  0.66466028  0.15791500    -0.13400
C230        C  0.30333804  0.58757778  0.07710632     0.16300
C231        C  0.30160532  0.57064841  0.05207132     0.25700
C232        C  0.27998023  0.55082407  0.04928644    -0.40500
C233        C  0.26011007  0.54836402  0.07204952     0.32700
C234        C  0.26186536  0.56540936  0.09709610     0.14400
F235        F  0.32416314  0.60680101  0.07909777    -0.12900
F236        F  0.23860270  0.52996856  0.06969014    -0.13400
F237        F  0.32133708  0.57335480  0.03072935    -0.15700
F238        F  0.24250085  0.56273435  0.11879309    -0.14300
F239        F  0.24504405  0.62848899  0.11254538    -0.14300
F240        F  0.33525366  0.61386039  0.18676583    -0.15700
C241        C  0.27115643  0.35058732  0.47590443     0.14400
C242        C  0.26583697  0.36646493  0.50123499     0.01300
C243        C  0.25706661  0.35374690  0.02619948     0.16300
C244        C  0.25602460  0.32455535  0.02682170     0.25700
C245        C  0.26311797  0.30875275  0.00156354    -0.40600
C246        C  0.26991297  0.32141794  0.47697442     0.32800
C247        C  0.26844258  0.39714130  0.50032756     0.01400
F248        F  0.25040473  0.36841850  0.05085460    -0.12900
F249        F  0.27579911  0.30692419  0.45198762    -0.13400
C250        C  0.24858635  0.41324357  0.48517114     0.16300
C251        C  0.25119456  0.44233347  0.48413211     0.25700
C252        C  0.27377166  0.45567841  0.49818874    -0.40500
C253        C  0.29061474  0.44123354  0.01472916     0.32700
C254        C  0.28878049  0.41204522  0.01489249     0.14400
F255        F  0.22652568  0.40075238  0.47168736    -0.12900
F256        F  0.31266129  0.45381495  0.02815439    -0.13400
F257        F  0.23141199  0.45754347  0.46984520    -0.15700
F258        F  0.30882683  0.39686630  0.02880774    -0.14300
F259        F  0.27828631  0.36338147  0.45025561    -0.14300
F260        F  0.24812285  0.31190278  0.05229051    -0.15700
C261        C  0.11927487  0.21739956  0.16667553     0.14400
C262        C  0.12142623  0.23947153  0.14634703     0.01300
C263        C  0.10744759  0.26475502  0.15205095     0.16300
C264        C  0.09212241  0.26814901  0.17811353     0.25700
C265        C  0.09090613  0.24641852  0.19897399    -0.40600
C266        C  0.10425119  0.22089396  0.19285177     0.32800
C267        C  0.14037489  0.23677000  0.12072104     0.01400
F268        F  0.10903125  0.28624936  0.13256324    -0.12900
F269        F  0.10278010  0.19937564  0.21232356    -0.13400
C270        C  0.13548726  0.21656414  0.09887891     0.16300
C271        C  0.15545598  0.21156448  0.07690337     0.25700
C272        C  0.18089796  0.22660459  0.07655246    -0.40500
C273        C  0.18493241  0.24787259  0.09776234     0.32700
C274        C  0.16488605  0.25282198  0.11956445     0.14400
F275        F  0.11165754  0.20112707  0.09934330    -0.12900
F276        F  0.20867890  0.26343819  0.09811361    -0.13400
F277        F  0.15033471  0.19105149  0.05691850    -0.15700
F278        F  0.17013242  0.27233224  0.14061667    -0.14300
F279        F  0.13267759  0.19281506  0.16167995    -0.14300
F280        F  0.07933600  0.29298432  0.18351080    -0.15700
C281        C  0.09943166  0.22628735  0.35737063     0.14400
C282        C  0.12583368  0.23906030  0.36016890     0.01300
C283        C  0.13499578  0.25716721  0.33771364     0.16300
C284        C  0.11849383  0.26185143  0.31270682     0.25700
C285        C  0.09258738  0.24821341  0.30927435    -0.40600
C286        C  0.08300222  0.23073343  0.33215102     0.32800
C287        C  0.14439928  0.23266030  0.38572070     0.01400
F288        F  0.16047990  0.26957781  0.33943795    -0.12900
F289        F  0.05826501  0.21701116  0.32960688    -0.13400
C290        C  0.15218354  0.20486722  0.39191037     0.16300
C291        C  0.17101167  0.19889467  0.41476195     0.25700
C292        C  0.18282851  0.22061801  0.43156675    -0.40500
C293        C  0.17492930  0.24838212  0.42555187     0.32700
C294        C  0.15566689  0.25431912  0.40308971     0.14400
F295        F  0.14260709  0.18356646  0.37487291    -0.12900
F296        F  0.18585115  0.26978861  0.44150733    -0.13400
F297        F  0.17899330  0.17197884  0.41929974    -0.15700
F298        F  0.14807689  0.28129035  0.39821699    -0.14300
F299        F  0.08963559  0.20929090  0.37900791    -0.14300
F300        F  0.12796376  0.27970705  0.29167748    -0.15700
C301        C  0.25695792  0.10274722  0.11443155     0.14400
C302        C  0.28080523  0.10646212  0.13205928     0.01300
C303        C  0.29966142  0.12796695  0.12518424     0.16300
C304        C  0.29428001  0.14612491  0.10164194     0.25700
C305        C  0.26979675  0.14313917  0.08443870    -0.40600
C306        C  0.25150341  0.12077901  0.09083036     0.32800
C307        C  0.28507664  0.08879717  0.15852045     0.01400
F308        F  0.32274758  0.13212267  0.14206154    -0.12900
F309        F  0.22769123  0.11687379  0.07505346    -0.13400
C310        C  0.30838763  0.07101492  0.16087427     0.16300
C311        C  0.31173349  0.05384586  0.18570077     0.25700
C312        C  0.29192323  0.05442107  0.20863744    -0.40500
C313        C  0.26883996  0.07258290  0.20634922     0.32700
C314        C  0.26547995  0.08958313  0.18155750     0.14400
F315        F  0.32767052  0.07002538  0.13893647    -0.12900
F316        F  0.24917312  0.07348374  0.22792627    -0.13400
F317        F  0.33456504  0.03706953  0.18760331    -0.15700
F318        F  0.24314290  0.10707532  0.18012402    -0.14300
F319        F  0.23863740  0.08181097  0.12043356    -0.14300
F320        F  0.31288108  0.16694097  0.09614300    -0.15700
C321        C  0.26135149  0.07543006  0.34906767     0.14400
C322        C  0.28191792  0.07424458  0.37113477     0.01300
C323        C  0.30588185  0.05773571  0.36669309     0.16300
C324        C  0.30944730  0.04304897  0.34020438     0.25700
C325        C  0.28926331  0.04507523  0.31775313    -0.40600
C326        C  0.26500580  0.06101462  0.32260829     0.32800
C327        C  0.27909838  0.09228854  0.39742890     0.01400
F328        F  0.32598013  0.05629381  0.38778442    -0.12900
F329        F  0.24497218  0.06289571  0.30147380    -0.13400
C330        C  0.25618536  0.08917315  0.41652783     0.16300
C331        C  0.25070232  0.10931816  0.43816063     0.25700
C332        C  0.26796456  0.13305639  0.44078138    -0.40500
C333        C  0.29187660  0.13516927  0.42275843     0.32700
C334        C  0.29737715  0.11494790  0.40130158     0.14400
F335        F  0.23843173  0.06722213  0.41331390    -0.12900
F336        F  0.30949985  0.15732079  0.42524472    -0.13400
F337        F  0.22744699  0.10654140  0.45507805    -0.15700
F338        F  0.31955449  0.11849081  0.38298346    -0.14300
F339        F  0.23826022  0.09161618  0.35264682    -0.14300
F340        F  0.33309604  0.02786386  0.33595859    -0.15700
C341        C  0.31862819  0.91437880  0.27165436     0.14400
C342        C  0.29995199  0.90016403  0.25304243     0.01300
C343        C  0.28141748  0.91563849  0.23540381     0.16300
C344        C  0.28125117  0.94491348  0.23667263     0.25700
C345        C  0.29985219  0.95926188  0.25544435    -0.40600
C346        C  0.31868551  0.94365123  0.27276451     0.32800
C347        C  0.29944735  0.86917172  0.25241337     0.01400
F348        F  0.26286480  0.90231147  0.21761751    -0.12900
F349        F  0.33736379  0.95677138  0.29057691    -0.13400
C350        C  0.29016763  0.85405802  0.27705956     0.16300
C351        C  0.28922609  0.82477861  0.27640739     0.25700
C352        C  0.29768056  0.80993048  0.25098878    -0.40500
C353        C  0.30731203  0.82532611  0.22641334     0.32700
C354        C  0.30805203  0.85461096  0.22714112     0.14400
F355        F  0.28142801  0.86775732  0.30161469    -0.12900
F356        F  0.31647329  0.81212473  0.20173173    -0.13400
F357        F  0.27945557  0.81109834  0.30052798    -0.15700
F358        F  0.31757280  0.86881902  0.20324811    -0.14300
F359        F  0.33696267  0.89984503  0.28861536    -0.14300
F360        F  0.26211047  0.95916282  0.22044149    -0.15700
C361        C  0.10163459  0.69673005  0.26109558     0.14400
C362        C  0.11876209  0.71397028  0.24365643     0.01300
C363        C  0.10622783  0.73399156  0.22526644     0.16300
C364        C  0.07718186  0.73729607  0.22483186     0.25700
C365        C  0.05982953  0.72029770  0.24249296    -0.40600
C366        C  0.07244707  0.69969854  0.26037723     0.32800
C367        C  0.14973576  0.71231654  0.24549501     0.01400
F368        F  0.12227201  0.75121810  0.20852092    -0.12900
F369        F  0.05656006  0.68213438  0.27687476    -0.13400
C370        C  0.16576426  0.70711931  0.22012473     0.16300
C371        C  0.19498186  0.70876933  0.22109800     0.25700
C372        C  0.20888049  0.71574478  0.24755774    -0.40500
C373        C  0.19270414  0.71973385  0.27327463     0.32700
C374        C  0.16348012  0.71808602  0.27218074     0.14400
F375        F  0.15303985  0.70062166  0.19425007    -0.12900
F376        F  0.20498102  0.72624586  0.29938533    -0.13400
F377        F  0.20958863  0.70347955  0.19604001    -0.15700
F378        F  0.14851293  0.72340849  0.29699318    -0.14300
F379        F  0.11319719  0.67687468  0.27868757    -0.14300
F380        F  0.06619207  0.75804880  0.20800387    -0.15700
C381        C  0.60545078  0.74809081  0.97570066     0.14400
C382        C  0.61767563  0.76800590  0.49537311     0.01300
C383        C  0.60135780  0.78376189  0.51508925     0.16300
C384        C  0.57230150  0.78037437  0.51597911     0.25700
C385        C  0.55899027  0.76103268  0.49723560    -0.40600
C386        C  0.57644991  0.74463985  0.97652533     0.32800
C387        C  0.64857230  0.77078289  0.49521973     0.01400
F388        F  0.61357318  0.80275935  0.53323410    -0.12900
F389        F  0.56466660  0.72522023  0.95855321    -0.13400
C390        C  0.66288662  0.77816828  0.46932636     0.16300
C391        C  0.69215920  0.77932374  0.46891827     0.25700
C392        C  0.70780989  0.77304400  0.49451044    -0.40500
C393        C  0.69426523  0.76277820  0.01968181     0.32700
C394        C  0.66503620  0.76234034  0.02018199     0.14400
F395        F  0.64846073  0.78428987  0.44435374    -0.12900
F396        F  0.70809631  0.75527557  0.04460421    -0.13400
F397        F  0.70504903  0.78642519  0.44332238    -0.15700
F398        F  0.65173516  0.75408534  0.04516424    -0.14300
F399        F  0.62072901  0.73237585  0.95666141    -0.14300
F400        F  0.55713232  0.79649302  0.53472831    -0.15700
C401        C  0.89635461  0.73441857  0.10728234     0.14400
C402        C  0.91995761  0.75160288  0.11030817     0.01300
C403        C  0.92463842  0.77297300  0.08967952     0.16300
C404        C  0.90537134  0.77787303  0.06698911     0.25700
C405        C  0.88079531  0.76167678  0.06482436    -0.40600
C406        C  0.87691911  0.73939279  0.08482506     0.32800
C407        C  0.93848952  0.74844459  0.13623624     0.01400
F408        F  0.94757472  0.78956100  0.09200127    -0.12900
F409        F  0.85400140  0.72270094  0.08308898    -0.13400
C410        C  0.95520922  0.72451952  0.13962780     0.16300
C411        C  0.97128683  0.72084193  0.16516010     0.25700
C412        C  0.97068304  0.74094924  0.18783510    -0.40500
C413        C  0.95421049  0.76512163  0.18412949     0.32700
C414        C  0.93830594  0.76883029  0.15853041     0.14400
F415        F  0.95565329  0.70456740  0.11833785    -0.12900
F416        F  0.95342966  0.78512471  0.20537408    -0.13400
F417        F  0.98651625  0.69706284  0.16827746    -0.15700
F418        F  0.92195724  0.79192173  0.15588462    -0.14300
F419        F  0.89145855  0.71359879  0.12697848    -0.14300
F420        F  0.91010084  0.79944533  0.04817995    -0.15700
C421        C  0.96211854  0.74928479  0.34817003     0.14400
C422        C  0.93418007  0.74001941  0.34806421     0.01300
C423        C  0.92404493  0.72581933  0.32313374     0.16300
C424        C  0.94115458  0.72169949  0.29853071     0.25700
C425        C  0.96852999  0.73271698  0.29767570    -0.40600
C426        C  0.97902467  0.74601855  0.32314462     0.32800
C427        C  0.91503973  0.74678336  0.37294955     0.01400
F428        F  0.89707068  0.71701392  0.32197935    -0.12900
F429        F  0.00513346  0.75714219  0.32347810    -0.13400
C430        C  0.91153060  0.77472291  0.38195875     0.16300
C431        C  0.89231162  0.78158209  0.40403286     0.25700
C432        C  0.87577332  0.76071907  0.41726694    -0.40500
C433        C  0.87929865  0.73274154  0.40838057     0.32700
C434        C  0.89895936  0.72580500  0.38665234     0.14400
F435        F  0.92579112  0.79563923  0.36839391    -0.12900
F436        F  0.86384322  0.71207624  0.42087217    -0.13400
F437        F  0.88880828  0.80891461  0.41131537    -0.15700
F438        F  0.90227650  0.69855973  0.37897257    -0.14300
F439        F  0.97288752  0.76206544  0.37237995    -0.14300
F440        F  0.93068639  0.70713851  0.27530972    -0.15700
C441        C  0.81239661  0.88475684  0.10110181     0.14400
C442        C  0.78483890  0.88966750  0.11073543     0.01300
C443        C  0.76278094  0.87515510  0.09697891     0.16300
C444        C  0.76829998  0.85514696  0.07515362     0.25700
C445        C  0.79594349  0.84969648  0.06616639    -0.40600
C446        C  0.81784815  0.86527145  0.07881883     0.32800
C447        C  0.77952259  0.90853316  0.13628740     0.01400
F448        F  0.73585263  0.88021103  0.10482662    -0.12900
F449        F  0.84481119  0.86045205  0.07091348    -0.13400
C450        C  0.79091437  0.93565781  0.13707582     0.16300
C451        C  0.78891792  0.95202846  0.16259858     0.25700
C452        C  0.77468257  0.94198349  0.18768210    -0.40500
C453        C  0.76177873  0.91550353  0.18614370     0.32700
C454        C  0.76458872  0.89880782  0.16097487     0.14400
F455        F  0.80448925  0.94616334  0.11323307    -0.12900
F456        F  0.74658858  0.90555375  0.20915733    -0.13400
F457        F  0.80215151  0.97714246  0.16314586    -0.15700
F458        F  0.75371538  0.87257547  0.16130715    -0.14300
F459        F  0.83430482  0.89772378  0.11437157    -0.14300
F460        F  0.74658669  0.84109648  0.06278471    -0.15700
C461        C  0.80917608  0.90667570  0.32471146     0.14400
C462        C  0.79140510  0.91115563  0.34884199     0.01300
C463        C  0.77183231  0.93296017  0.34784805     0.16300
C464        C  0.76914527  0.94935280  0.32240548     0.25700
C465        C  0.78624572  0.94427814  0.29762309    -0.40600
C466        C  0.80687562  0.92327071  0.29945296     0.32800
C467        C  0.79194061  0.89156087  0.37396676     0.01400
F468        F  0.75453044  0.93755770  0.37107512    -0.12900
F469        F  0.82473917  0.91865255  0.27669769    -0.13400
C470        C  0.80686439  0.89790608  0.39970354     0.16300
C471        C  0.80929655  0.87805297  0.42230214     0.25700
C472        C  0.79674836  0.85140357  0.41945605    -0.40500
C473        C  0.78059704  0.84586510  0.39397946     0.32700
C474        C  0.77844069  0.86568785  0.37148729     0.14400
F475        F  0.81990304  0.92298954  0.40246782    -0.12900
F476        F  0.76745385  0.82094504  0.39019091    -0.13400
F477        F  0.82472927  0.88471410  0.44642604    -0.15700
F478        F  0.76365800  0.85935783  0.34680009    -0.14300
F479        F  0.82837214  0.88575300  0.32542500    -0.14300
F480        F  0.74881390  0.96914909  0.32149563    -0.15700
C481        C  0.81416176  0.63596461  0.01616523     0.14400
C482        C  0.80143530  0.62054972  0.99355712     0.01300
C483        C  0.79428450  0.63674608  0.46908824     0.16300
C484        C  0.79202692  0.66588605  0.46893139     0.25700
C485        C  0.79784634  0.67950619  0.99404997    -0.40600
C486        C  0.81230019  0.66514570  0.01654655     0.32800
C487        C  0.80210668  0.58968637  0.99427456     0.01400
F488        F  0.79141979  0.62242501  0.44340512    -0.12900
F489        F  0.82497858  0.67929273  0.03879749    -0.13400
C490        C  0.78150343  0.57557151  0.51063245     0.16300
C491        C  0.78413175  0.54652314  0.51172449     0.25700
C492        C  0.80315209  0.53096069  0.99733989    -0.40500
C493        C  0.82762952  0.54579191  0.99045094     0.32700
C494        C  0.82714330  0.57507373  0.98906639     0.14400
F495        F  0.75910460  0.58798374  0.52357166    -0.12900
F496        F  0.85189865  0.53191916  0.98523484    -0.13400
F497        F  0.76409677  0.53124502  0.52552968    -0.15700
F498        F  0.85095247  0.58919092  0.98240865    -0.14300
F499        F  0.82796473  0.62264058  0.03823415    -0.14300
F500        F  0.78720713  0.67884210  0.44277952    -0.15700
C501        C  0.95624417  0.24899823  0.23689926     0.14400
C502        C  0.94378223  0.27104816  0.25258812     0.01300
C503        C  0.96080431  0.28952158  0.26870539     0.16300
C504        C  0.98986486  0.28580346  0.26936213     0.25700
C505        C  0.00231056  0.26355263  0.25388038    -0.40600
C506        C  0.98520691  0.24526948  0.23753786     0.32800
C507        C  0.91294630  0.27394627  0.25285978     0.01400
F508        F  0.94926871  0.31136407  0.28346729    -0.12900
F509        F  0.99649865  0.22327343  0.22279571    -0.13400
C510        C  0.89806779  0.27126107  0.27937668     0.16300
C511        C  0.86880531  0.27134271  0.27940485     0.25700
C512        C  0.85375833  0.27396771  0.25275527    -0.40500
C513        C  0.86891707  0.27788738  0.22632682     0.32700
C514        C  0.89816381  0.27776409  0.22643435     0.14400
F515        F  0.91191785  0.26733397  0.30518351    -0.12900
F516        F  0.85556192  0.28176392  0.20021766    -0.13400
F517        F  0.85534979  0.26793035  0.30550955    -0.15700
F518        F  0.91212512  0.28120202  0.20061423    -0.14300
F519        F  0.94023446  0.23056046  0.22159804    -0.14300
F520        F  0.00589707  0.30428134  0.28455469    -0.15700
C521        C  0.74800167  0.07614346  0.26122523     0.14400
C522        C  0.76500918  0.09239487  0.24266542     0.01300
C523        C  0.78388119  0.07904031  0.22357438     0.16300
C524        C  0.78597018  0.04986050  0.22324935     0.25700
C525        C  0.76917482  0.03352215  0.24201844    -0.40600
C526        C  0.75004997  0.04692784  0.26090872     0.32800
C527        C  0.76399925  0.12331012  0.24401873     0.01400
F528        F  0.80097639  0.09436131  0.20595985    -0.12900
F529        F  0.73313687  0.03169922  0.27880555    -0.13400
C530        C  0.77258482  0.13727256  0.26965752     0.16300
C531        C  0.77305484  0.16649620  0.27066039     0.25700
C532        C  0.76479082  0.18247626  0.24593367    -0.40500
C533        C  0.75575273  0.16825218  0.22035896     0.32700
C534        C  0.75546533  0.13897512  0.21944472     0.14400
F535        F  0.78135447  0.12252472  0.29351892    -0.12900
F536        F  0.74697420  0.18256354  0.19621569    -0.13400
F537        F  0.78231902  0.17900570  0.29570501    -0.15700
F538        F  0.74666112  0.12584787  0.19457217    -0.14300
F539        F  0.72932521  0.08862101  0.27953973    -0.14300
F540        F  0.80517660  0.03759767  0.20538887    -0.15700
C541        C  0.80782215  0.40019616  0.08534691     0.14400
C542        C  0.79367120  0.41178017  0.10965420     0.01300
C543        C  0.78391956  0.43947066  0.10771184     0.16300
C544        C  0.78631136  0.45449581  0.08132963     0.31300
C545        C  0.79955320  0.44253063  0.05652803    -0.40600
C546        C  0.81123456  0.41557611  0.05935850     0.32800
C547        C  0.78694081  0.39414117  0.13578684     0.01400
F548        F  0.77136323  0.45178168  0.13122110    -0.12900
F549        F  0.82572965  0.40382839  0.03678980    -0.13400
C550        C  0.80778393  0.37828543  0.14997377     0.16300
C551        C  0.80059506  0.35876075  0.17172780     0.25700
C552        C  0.77248957  0.35518888  0.18023420    -0.40500
C553        C  0.75193320  0.37237560  0.16746124     0.32700
C554        C  0.75901454  0.39135604  0.14521471     0.14400
F555        F  0.83508386  0.38133957  0.14239263    -0.12900
F556        F  0.72460651  0.36940987  0.17495648    -0.13400
F557        F  0.82110010  0.34309730  0.18424812    -0.15700
F558        F  0.73820717  0.40570577  0.13157075    -0.14300
F559        F  0.81719059  0.37339730  0.08614188    -0.14300
F560        F  0.77426500  0.48015837  0.07976083    -0.15700
C561        C  0.77113656  0.43023697  0.40254150     0.14400
C562        C  0.79104135  0.41046612  0.39326939     0.01300
C563        C  0.81642001  0.40808495  0.40879737     0.16300
C564        C  0.82117778  0.42414108  0.43406617     0.25700
C565        C  0.80084658  0.44312356  0.44389801    -0.40600
C566        C  0.77608214  0.44656377  0.42761106     0.32800
C567        C  0.78407181  0.39014477  0.36971992     0.01400
F568        F  0.83630106  0.38967439  0.39983599    -0.12900
F569        F  0.75608246  0.46469768  0.43690026    -0.13400
C570        C  0.77689867  0.39890512  0.34110055     0.16300
C571        C  0.76938139  0.37922368  0.31952301     0.25700
C572        C  0.76898056  0.35042011  0.32627097    -0.40500
C573        C  0.77613373  0.34193029  0.35513000     0.32700
C574        C  0.78352912  0.36153914  0.37647776     0.14400
F575        F  0.77748146  0.42648055  0.33398702    -0.12900
F576        F  0.77522572  0.31458991  0.36319374    -0.13400
F577        F  0.76288910  0.38836299  0.29202534    -0.15700
F578        F  0.78937521  0.35256789  0.40422167    -0.14300
F579        F  0.74624846  0.43257237  0.38834483    -0.14300
F580        F  0.84549462  0.42098305  0.44916778    -0.15700
C581        C  0.66865658  0.24041952  0.13375496     0.14400
C582        C  0.64380411  0.25589949  0.13200997     0.01300
C583        C  0.63844438  0.27650426  0.15336565     0.16300
C584        C  0.65811697  0.28228762  0.17551861     0.25700
C585        C  0.68376789  0.26770013  0.17656112    -0.40600
C586        C  0.68844389  0.24622513  0.15567235     0.32800
C587        C  0.62498861  0.25237433  0.10622417     0.01400
F588        F  0.61436041  0.29150386  0.15230934    -0.12900
F589        F  0.71246980  0.23108102  0.15593406    -0.13400
C590        C  0.61014027  0.22734653  0.10164219     0.16300
C591        C  0.59410571  0.22362720  0.07598337     0.25700
C592        C  0.59314542  0.24468907  0.05429929    -0.40500
C593        C  0.60769964  0.26981126  0.05918876     0.32700
C594        C  0.62332944  0.27366497  0.08495527     0.14400
F595        F  0.61138510  0.20648173  0.12190514    -0.12900
F596        F  0.60673674  0.29068426  0.03892603    -0.13400
F597        F  0.58029075  0.19912901  0.07183904    -0.15700
F598        F  0.63766024  0.29791229  0.08874130    -0.14300
F599        F  0.67440028  0.22050810  0.11327540    -0.14300
F600        F  0.65249367  0.30304190  0.19506175    -0.15700
C601        C  0.60083432  0.25784738  0.39792572     0.14400
C602        C  0.62620531  0.24345086  0.39359387     0.01300
C603        C  0.63398064  0.22275419  0.41413460     0.16300
C604        C  0.61712664  0.21707978  0.43870937     0.25700
C605        C  0.59233061  0.23229462  0.44366095    -0.40600
C606        C  0.58422331  0.25250835  0.42276275     0.32800
C607        C  0.64509000  0.25089891  0.36853398     0.01400
F608        F  0.65852988  0.20877100  0.41113547    -0.12900
F609        F  0.56086644  0.26812565  0.42706253    -0.13400
C610        C  0.65330009  0.27888809  0.36400216     0.16300
C611        C  0.67178098  0.28589600  0.34120394     0.25700
C612        C  0.68318646  0.26500631  0.32301018    -0.40500
C613        C  0.67500583  0.23707002  0.32736291     0.32700
C614        C  0.65580730  0.23012933  0.34958207     0.14400
F615        F  0.64450664  0.29935873  0.38256910    -0.12900
F616        F  0.68559422  0.21649155  0.31001323    -0.13400
F617        F  0.67990000  0.31295511  0.33808395    -0.15700
F618        F  0.64769552  0.20306941  0.35256615    -0.14300
F619        F  0.59222641  0.27740641  0.37821506    -0.14300
F620        F  0.62524959  0.19685911  0.45791181    -0.15700
C621        C  0.39563396  0.20997033  0.47876727     0.14400
C622        C  0.41112957  0.21905715  0.50327153     0.01300
C623        C  0.39778294  0.22943064  0.02905814     0.16300
C624        C  0.36847994  0.22888707  0.02953561     0.25700
C625        C  0.35174665  0.21807796  0.50515858    -0.40600
C626        C  0.36637197  0.20935870  0.47967436     0.32800
C627        C  0.44218741  0.22071612  0.50177119     0.01400
F628        F  0.41180445  0.23859337  0.05323675    -0.12900
F629        F  0.35248731  0.20037823  0.45533600    -0.13400
C630        C  0.45620846  0.24218695  0.98226234     0.16300
C631        C  0.48534812  0.24503561  0.98141001     0.25700
C632        C  0.50111813  0.22409710  0.49857057    -0.40500
C633        C  0.48743163  0.19870291  0.49280546     0.32700
C634        C  0.45821265  0.19695966  0.49457050     0.14400
F635        F  0.44028004  0.25797980  0.96389863    -0.12900
F636        F  0.50245585  0.17544361  0.48619063    -0.13400
F637        F  0.49663336  0.26405091  0.96264050    -0.15700
F638        F  0.44559180  0.17190315  0.48995494    -0.14300
F639        F  0.40884827  0.20240394  0.45349948    -0.14300
F640        F  0.35525124  0.23742210  0.05444810    -0.15700
C641        C  0.53361921  0.23283129  0.99994352     0.04900
C642        C  0.54653320  0.22737021  0.52523236    -0.11300
C643        C  0.57579593  0.22929194  0.52559779     0.02400
C644        C  0.59048035  0.22994156  0.49880923    -0.09800
C645        C  0.57727913  0.23938263  0.97231148     0.04800
C646        C  0.54825252  0.23439692  0.97295865    -0.09200
H647        H  0.53504081  0.22721265  0.54582995     0.10400
H648        H  0.61299520  0.23266620  0.49916499     0.08000
H649        H  0.53711278  0.23153653  0.95241353     0.07800
Fe650      Fe  0.77026607  0.26892713  0.70950662     1.65800
Fe651      Fe  0.76514109  0.26632192  0.78424136     1.73200
Fe652      Fe  0.72396754  0.31182397  0.74563809     1.54400
O653        O  0.74343979  0.33494669  0.71254371    -0.80000
O654        O  0.72457772  0.25802354  0.79776142    -0.78300
O655        O  0.77765850  0.30865006  0.69416785    -0.82500
O656        O  0.73238987  0.26711420  0.68791160    -0.77300
O657        O  0.74461095  0.33627600  0.77706705    -0.79100
O658        O  0.76738226  0.22600960  0.76873030    -0.81800
C659        C  0.70740867  0.27521971  0.69211413     0.98900
C660        C  0.76428298  0.33145061  0.69554023     1.06400
O661        O  0.75301277  0.28233453  0.74640536    -1.10800
O662        O  0.80706447  0.27336829  0.77500430    -0.73200
O663        O  0.81036815  0.26966347  0.72633557    -0.76700
O664        O  0.70044758  0.29029543  0.71413543    -0.77400
C665        C  0.82152194  0.27294922  0.75148342     0.97800
O666        O  0.76537175  0.22711468  0.71993994    -0.75400
O667        O  0.76461085  0.30415053  0.80543589    -0.80600
C668        C  0.70249418  0.27274745  0.79638086     1.00500
C669        C  0.75776780  0.32927476  0.80037023     1.06400
O670        O  0.70012002  0.29347626  0.77894750    -0.76200
C671        C  0.76641429  0.21371417  0.74403580     1.04700
C672        C  0.80866153  0.50248813  0.49812889     0.04900
C673        C  0.79840040  0.48488020  0.97252815    -0.11300
C674        C  0.79417541  0.45594951  0.97386230     0.02400
C675        C  0.80566735  0.44404599  0.49866747    -0.09800
C676        C  0.80815130  0.45854804  0.52558694     0.04800
C677        C  0.81019172  0.48789852  0.52492598    -0.09200
H678        H  0.79730241  0.49558160  0.95148858     0.10400
H679        H  0.80298524  0.42154991  0.49855618     0.08000
H680        H  0.81242546  0.49959536  0.54524005     0.07800
C681        C  0.78204183  0.00327341  0.74401568     0.04900
C682        C  0.78685134  0.98866314  0.77040371    -0.11300
C683        C  0.78936626  0.95939387  0.77036609     0.02400
C684        C  0.78794143  0.94503013  0.74340601    -0.09800
C685        C  0.78325337  0.95925968  0.71677575     0.04800
C686        C  0.77990592  0.98841535  0.71740619    -0.09200
H687        H  0.78886771  0.00013470  0.79089363     0.10400
H688        H  0.79032633  0.92253089  0.74319679     0.08000
H689        H  0.77525526  0.99962436  0.69724185     0.07800
Fe690      Fe  0.79355894  0.76681310  0.53109124     1.65800
Fe691      Fe  0.79364590  0.76418527  0.95551013     1.73200
Fe692      Fe  0.83918245  0.80668023  0.99265000     1.54400
O693        O  0.82380895  0.83050025  0.52711093    -0.80000
O694        O  0.83276485  0.75544420  0.93836730    -0.78300
O695        O  0.78856879  0.80677921  0.54716359    -0.82500
O696        O  0.83288107  0.76338332  0.54995004    -0.77300
O697        O  0.81759623  0.83248074  0.96424506    -0.79100
O698        O  0.79190470  0.72319298  0.97004161    -0.81800
C699        C  0.85786537  0.76941019  0.54283765     0.98900
C700        C  0.80376278  0.82843897  0.54533619     1.06400
O701        O  0.80906339  0.77851059  0.99289289    -1.10800
O702        O  0.75267519  0.77138852  0.96824113    -0.73200
O703        O  0.75223897  0.76812146  0.51762391    -0.76700
O704        O  0.86366256  0.78377176  0.52006518    -0.77400
C705        C  0.74007697  0.76879603  0.99273786     0.97800
O706        O  0.79707647  0.72550393  0.51919029    -0.75400
O707        O  0.79379822  0.80309583  0.93562464    -0.80600
C708        C  0.85563745  0.76890368  0.93919214     1.00500
C709        C  0.80292872  0.82741438  0.94152316     1.06400
O710        O  0.86002360  0.78871988  0.95727509    -0.76200
C711        C  0.79369618  0.71239211  0.49516544     1.04700
C712        C  0.02847716  0.72344031  0.74131531     0.04900
C713        C  0.01303475  0.72523823  0.76766019    -0.11300
C714        C  0.98436514  0.73196050  0.76713593     0.02400
C715        C  0.97131048  0.73635739  0.73974277    -0.09800
C716        C  0.98619777  0.73387001  0.71319223     0.04800
C717        C  0.01486721  0.72754512  0.71415757    -0.09200
H718        H  0.02350222  0.72182997  0.78853491     0.10400
H719        H  0.94935328  0.74188198  0.73900348     0.08000
H720        H  0.02670642  0.72625411  0.69383096     0.07800
C721        C  0.29797214  0.98754079  0.75822138     0.04900
C722        C  0.29582698  0.00442751  0.73280116    -0.11300
C723        C  0.29152672  0.03343440  0.73525014     0.02400
C724        C  0.29020274  0.04563398  0.76327717    -0.09800
C725        C  0.29268352  0.02929392  0.78875722     0.04800
C726        C  0.29659975  0.00032629  0.78618353    -0.09200
H727        H  0.29685947  0.99497334  0.71112368     0.10400
H728        H  0.28705349  0.06801315  0.76530418     0.08000
H729        H  0.29738604  0.98767188  0.80598031     0.07800
Fe730      Fe  0.26656608  0.22437182  0.54397577     1.65800
Fe731      Fe  0.26761465  0.22200124  0.96746851     1.73200
Fe732      Fe  0.22473385  0.17908376  0.00744163     1.54400
O733        O  0.23903823  0.16012123  0.54625126    -0.80000
O734        O  0.22794088  0.22763931  0.95046886    -0.78300
O735        O  0.27475588  0.18581229  0.56185736    -0.82500
O736        O  0.22755257  0.22544692  0.56394737    -0.77300
O737        O  0.24762970  0.15288761  0.98052944    -0.79100
O738        O  0.26724822  0.26383452  0.97922677    -0.81800
C739        C  0.20261148  0.21849189  0.55749812     0.98900
C740        C  0.25983855  0.16395748  0.56330915     1.06400
O741        O  0.25332821  0.20890039  0.00579924    -1.10800
O742        O  0.30894278  0.21786135  0.98012591    -0.73200
O743        O  0.30779661  0.22527239  0.52921988    -0.76700
O744        O  0.19686640  0.20393036  0.53483100    -0.77400
C745        C  0.32187114  0.22116828  0.00433271     0.97800
O746        O  0.25966905  0.26466561  0.52990943    -0.75400
O747        O  0.27003009  0.18197995  0.95037330    -0.80600
C748        C  0.20554833  0.21353633  0.95249979     1.00500
C749        C  0.26278962  0.15748111  0.95807322     1.06400
O750        O  0.20235123  0.19413908  0.97136809    -0.76200
C751        C  0.26362967  0.27644706  0.50522784     1.04700
C752        C  0.03217427  0.26356056  0.75672932     0.04900
C753        C  0.04773551  0.25918730  0.78269087    -0.11300
C754        C  0.07617783  0.25177111  0.78134588     0.02400
C755        C  0.08883728  0.24856909  0.75360442    -0.09800
C756        C  0.07374829  0.25332034  0.72755913     0.04800
C757        C  0.04550908  0.26107185  0.72921211    -0.09200
H758        H  0.03767434  0.26168251  0.80392849     0.10400
H759        H  0.11053470  0.24215244  0.75218486     0.08000
H760        H  0.03365474  0.26398054  0.70907338     0.07800
C761        C  0.27297864  0.48799815  0.99832081     0.04900
C762        C  0.27932642  0.50234462  0.52253993    -0.11300
C763        C  0.28239413  0.53151027  0.52100308     0.02400
C764        C  0.27884537  0.54616678  0.99447116    -0.09800
C765        C  0.27732262  0.53010979  0.96867137     0.04800
C766        C  0.27410927  0.50110344  0.97069648    -0.09200
H767        H  0.27884665  0.49209060  0.54384356     0.10400
H768        H  0.28074526  0.56870646  0.99282117     0.08000
H769        H  0.27332264  0.48862226  0.95075514     0.07800
Fe770      Fe  0.29303286  0.72047604  0.78699192     1.65800
Fe771      Fe  0.29166679  0.72301269  0.71175346     1.73200
Fe772      Fe  0.33823299  0.67977516  0.74666250     1.54400
O773        O  0.36217536  0.69968049  0.77825271    -0.80000
O774        O  0.28930339  0.68448639  0.69141568    -0.78300
O775        O  0.33219669  0.72396509  0.80552517    -0.82500
O776        O  0.28892119  0.68019853  0.80257345    -0.77300
O777        O  0.36037618  0.70121265  0.71465881    -0.79100
O778        O  0.25085147  0.71695002  0.72536633    -0.81800
C779        C  0.30132927  0.65716751  0.79780181     0.98900
C780        C  0.35670487  0.71520604  0.80018402     1.06400
O781        O  0.30771028  0.70774287  0.74846073    -1.10800
O782        O  0.29258826  0.76388579  0.72700936    -0.73200
O783        O  0.29582015  0.76237339  0.77589709    -0.76700
O784        O  0.32003441  0.65448393  0.77815424    -0.77400
C785        C  0.29503932  0.77593808  0.75184353     0.97800
O786        O  0.25152404  0.71838698  0.77431005    -0.75400
O787        O  0.33028681  0.73022729  0.69316160    -0.80600
C788        C  0.30094186  0.66082338  0.69452747     1.00500
C789        C  0.35451822  0.71963823  0.69547028     1.06400
O790        O  0.31855090  0.65600958  0.71482908    -0.76200
C791        C  0.23847454  0.71619769  0.75008070     1.04700
C792        C  0.52907828  0.75629127  0.99729054     0.04900
C793        C  0.51383627  0.75441828  0.52497920    -0.11300
C794        C  0.48474424  0.75038489  0.52548045     0.02400
C795        C  0.47132369  0.74565122  0.99847806    -0.09800
C796        C  0.48504229  0.74822953  0.97133375     0.04800
C797        C  0.51374253  0.75419620  0.97088768    -0.09200
H798        H  0.52541391  0.75427658  0.54551169     0.10400
H799        H  0.44900722  0.74168126  0.99894069     0.08000
H800        H  0.52425264  0.75652537  0.94988334     0.07800
C801        C  0.43730370  0.71501117  0.91465647     0.14400
C802        C  0.43767691  0.73500888  0.89203395     0.01300
C803        C  0.45448743  0.75891004  0.89492650     0.16300
C804        C  0.47037212  0.76307351  0.92047132     0.25700
C805        C  0.46944337  0.74342906  0.94355945    -0.40600
C806        C  0.45305981  0.71915635  0.94021460     0.32800
C807        C  0.41882591  0.73184227  0.86652206     0.01400
F808        F  0.45513450  0.77837338  0.87314788    -0.12900
F809        F  0.45234489  0.69940577  0.96172264    -0.13400
C810        C  0.39496000  0.74870930  0.86439549     0.16300
C811        C  0.37543396  0.74418875  0.84200808     0.25700
C812        C  0.37937165  0.72251115  0.82127692    -0.40500
C813        C  0.40412609  0.70643892  0.82276726     0.32700
C814        C  0.42356083  0.71099621  0.84535750     0.14400
F815        F  0.38996744  0.76883149  0.88486439    -0.12900
F816        F  0.40903150  0.68546452  0.80325784    -0.13400
F817        F  0.35237935  0.76074819  0.84110074    -0.15700
F818        F  0.44673094  0.69465093  0.84700785    -0.14300
F819        F  0.42095205  0.69189081  0.91235178    -0.14300
F820        F  0.48580419  0.78677287  0.92310263    -0.15700
C821        C  0.45436421  0.76262702  0.60174332     0.14400
C822        C  0.43595100  0.73988303  0.60417807     0.01300
C823        C  0.43492151  0.71983213  0.58164120     0.16300
C824        C  0.45159309  0.72277253  0.55658398     0.25700
C825        C  0.46945516  0.74599585  0.55352261    -0.40600
C826        C  0.47105487  0.76569359  0.57653475     0.32800
C827        C  0.41617300  0.73782446  0.62902301     0.01400
F828        F  0.41725376  0.69767956  0.58369552    -0.12900
F829        F  0.48765170  0.78859335  0.57392397    -0.13400
C830        C  0.38810555  0.74506461  0.62463119     0.16300
C831        C  0.36835338  0.74037180  0.64673002     0.25700
C832        C  0.37628579  0.72802366  0.67375955    -0.40500
C833        C  0.40480338  0.72165382  0.67840018     0.32700
C834        C  0.42455892  0.72659399  0.65617156     0.14400
F835        F  0.37965680  0.75584896  0.59840058    -0.12900
F836        F  0.41355582  0.71010289  0.70414446    -0.13400
F837        F  0.34120980  0.74659718  0.64086971    -0.15700
F838        F  0.45169077  0.71940514  0.66067895    -0.14300
F839        F  0.45529240  0.78238473  0.62321680    -0.14300
F840        F  0.45007102  0.70304884  0.53509050    -0.15700
C841        C  0.30595880  0.57475268  0.90720704     0.14400
C842        C  0.28463331  0.57282509  0.88598281     0.01300
C843        C  0.26141558  0.55554560  0.89139666     0.16300
C844        C  0.25925283  0.54097765  0.91807294     0.25700
C845        C  0.28018737  0.54374163  0.93966044    -0.40600
C846        C  0.30376233  0.56032442  0.93379123     0.32800
C847        C  0.28594188  0.59085206  0.85958193     0.01400
F848        F  0.24071715  0.55315839  0.87105777    -0.12900
F849        F  0.32460633  0.56270782  0.95397958    -0.13400
C850        C  0.30913788  0.58953672  0.84069836     0.16300
C851        C  0.31347274  0.61029900  0.81952182     0.25700
C852        C  0.29453605  0.63280967  0.81681471    -0.40500
C853        C  0.27016963  0.63279610  0.83435687     0.32700
C854        C  0.26598146  0.61202486  0.85556597     0.14400
F855        F  0.32833764  0.56880597  0.84377322    -0.12900
F856        F  0.25080961  0.65343522  0.83182979    -0.13400
F857        F  0.33714648  0.60916694  0.80304093    -0.15700
F858        F  0.24335708  0.61370743  0.87357082    -0.14300
F859        F  0.32841001  0.59161058  0.90269342    -0.14300
F860        F  0.23625339  0.52508845  0.92332078    -0.15700
C861        C  0.26905430  0.62250766  0.62925975     0.14400
C862        C  0.28840081  0.60081396  0.62502967     0.01300
C863        C  0.31015644  0.59718034  0.64540564     0.16300
C864        C  0.31336148  0.61571858  0.66899621     0.25700
C865        C  0.29489978  0.63853622  0.67251634    -0.40600
C866        C  0.27220095  0.64118403  0.65278376     0.32800
C867        C  0.28683198  0.58279343  0.59859243     0.01400
F868        F  0.32872489  0.57592783  0.64202858    -0.12900
F869        F  0.25334701  0.66223655  0.65574032    -0.13400
C870        C  0.30844693  0.58348516  0.57761157     0.16300
C871        C  0.30717185  0.56654121  0.55253874     0.25700
C872        C  0.28430874  0.54854167  0.54812995    -0.40500
C873        C  0.26272158  0.54779529  0.56916370     0.32700
C874        C  0.26390157  0.56493580  0.59414605     0.14400
F875        F  0.33055267  0.60099030  0.58119479    -0.12900
F876        F  0.24013988  0.53102789  0.56506921    -0.13400
F877        F  0.32837169  0.56752505  0.53264612    -0.15700
F878        F  0.24275796  0.56402813  0.61408982    -0.14300
F879        F  0.24781998  0.62638090  0.60980244    -0.14300
F880        F  0.33537653  0.61195134  0.68748261    -0.15700
C881        C  0.27128780  0.35240641  0.97498008     0.14400
C882        C  0.26487486  0.36778513  0.00040109     0.01300
C883        C  0.25851714  0.35299145  0.52754411     0.16300
C884        C  0.25704159  0.32382049  0.52875185     0.25700
C885        C  0.26321228  0.30753058  0.50357044    -0.40600
C886        C  0.27052059  0.32315971  0.97549391     0.32800
C887        C  0.26672809  0.39854461  0.00022310     0.01400
F888        F  0.25277061  0.36818293  0.55210535    -0.12900
F889        F  0.27774454  0.30909384  0.95062710    -0.13400
C890        C  0.24642074  0.41447620  0.98553824     0.16300
C891        C  0.24819533  0.44364852  0.98539074     0.25700
C892        C  0.27035559  0.45725032  0.99990463    -0.40500
C893        C  0.29370044  0.43945481  0.51329442     0.32700
C894        C  0.29101480  0.41035928  0.51436640     0.14400
F895        F  0.22477077  0.40172960  0.97158952    -0.12900
F896        F  0.31616841  0.45172216  0.52625996    -0.13400
F897        F  0.22813076  0.45868523  0.97133126    -0.15700
F898        F  0.31072736  0.39497197  0.52856242    -0.14300
F899        F  0.27901483  0.36576552  0.94984780    -0.14300
F900        F  0.24972809  0.31168723  0.55469469    -0.15700
C901        C  0.11400251  0.21903083  0.66559765     0.14400
C902        C  0.11947203  0.24184698  0.64690789     0.01300
C903        C  0.10799377  0.26815584  0.65381355     0.16300
C904        C  0.09203733  0.27172661  0.67948154     0.25700
C905        C  0.08762677  0.24911659  0.69873088    -0.40600
C906        C  0.09828922  0.22266254  0.69130216     0.32800
C907        C  0.13897312  0.23842228  0.62169906     0.01400
F908        F  0.11271309  0.29046500  0.63597738    -0.12900
F909        F  0.09388234  0.20041858  0.70932088    -0.13400
C910        C  0.13362256  0.21863077  0.59950178     0.16300
C911        C  0.15373325  0.21292294  0.57784543     0.25700
C912        C  0.17973414  0.22692079  0.57800163    -0.40500
C913        C  0.18441408  0.24768356  0.59960211     0.32700
C914        C  0.16428778  0.25328227  0.62118267     0.14400
F915        F  0.10910371  0.20431153  0.59923641    -0.12900
F916        F  0.20879450  0.26222523  0.60041460    -0.13400
F917        F  0.14814893  0.19273024  0.55763694    -0.15700
F918        F  0.17018359  0.27226883  0.64257003    -0.14300
F919        F  0.12504887  0.19347408  0.65969412    -0.14300
F920        F  0.08197981  0.29749586  0.68624458    -0.15700
C921        C  0.09893632  0.22479325  0.85673683     0.14400
C922        C  0.12576122  0.23666887  0.85955842     0.01300
C923        C  0.13580053  0.25392052  0.83674611     0.16300
C924        C  0.11944409  0.25928535  0.81180941     0.25700
C925        C  0.09281556  0.24707174  0.80869996    -0.40600
C926        C  0.08271524  0.22977906  0.83148574     0.32800
C927        C  0.14375880  0.23065787  0.88568599     0.01400
F928        F  0.16187660  0.26507451  0.83820959    -0.12900
F929        F  0.05748828  0.21697491  0.82893081    -0.13400
C930        C  0.15004524  0.20291511  0.89377668     0.16300
C931        C  0.16909144  0.19737157  0.91656234     0.25700
C932        C  0.18272557  0.21942869  0.93125009    -0.40500
C933        C  0.17584513  0.24712926  0.92378298     0.32700
C934        C  0.15626578  0.25268139  0.90155685     0.14400
F935        F  0.13893727  0.18112325  0.87856438    -0.12900
F936        F  0.18815714  0.26887257  0.93801281    -0.13400
F937        F  0.17554171  0.17039066  0.92297702    -0.15700
F938        F  0.14971987  0.27967166  0.89529878    -0.14300
F939        F  0.08834982  0.20842518  0.87849384    -0.14300
F940        F  0.12965104  0.27666369  0.79071894    -0.15700
C941        C  0.25387186  0.10061051  0.61399126     0.14400
C942        C  0.27558223  0.10551119  0.63414592     0.01300
C943        C  0.29301421  0.12877982  0.63018185     0.16300
C944        C  0.28850956  0.14725948  0.60673026     0.25700
C945        C  0.26632528  0.14282682  0.58659447    -0.40600
C946        C  0.24934005  0.11891446  0.59037000     0.32800
C947        C  0.27960211  0.08670702  0.65974102     0.01400
F948        F  0.31389690  0.13413850  0.64967762    -0.12900
F949        F  0.22795585  0.11333604  0.57157998    -0.13400
C950        C  0.30377807  0.07014422  0.66211419     0.16300
C951        C  0.30748913  0.05236172  0.68636860     0.25700
C952        C  0.28721735  0.05116502  0.70878825    -0.40500
C953        C  0.26307881  0.06789365  0.70639748     0.32700
C954        C  0.25927994  0.08543178  0.68204318     0.14400
F955        F  0.32371874  0.07116217  0.64084365    -0.12900
F956        F  0.24304262  0.06707454  0.72759851    -0.13400
F957        F  0.33123273  0.03692202  0.68839494    -0.15700
F958        F  0.23598013  0.10160463  0.68046491    -0.14300
F959        F  0.23693551  0.07803753  0.61729274    -0.14300
F960        F  0.30561454  0.16981363  0.60431127    -0.15700
C961        C  0.26240040  0.07240218  0.85069264     0.14400
C962        C  0.28475887  0.07333919  0.87076403     0.01300
C963        C  0.30931270  0.05824142  0.86460577     0.16300
C964        C  0.31160656  0.04284945  0.83838705     0.25700
C965        C  0.28951233  0.04273561  0.81791899    -0.40600
C966        C  0.26477571  0.05729273  0.82450083     0.32800
C967        C  0.28276517  0.09194870  0.89674252     0.01400
F968        F  0.33115747  0.05884387  0.88371889    -0.12900
F969        F  0.24305127  0.05726495  0.80521225    -0.13400
C970        C  0.26141496  0.08806044  0.91758679     0.16300
C971        C  0.25586624  0.10862833  0.93873180     0.25700
C972        C  0.27155078  0.13360842  0.93925406    -0.40500
C973        C  0.29427922  0.13643575  0.91964414     0.32700
C974        C  0.29977618  0.11580121  0.89857995     0.14400
F975        F  0.24508592  0.06484742  0.91654623    -0.12900
F976        F  0.31068540  0.15961589  0.92013808    -0.13400
F977        F  0.23398837  0.10477680  0.95736929    -0.15700
F978        F  0.32056535  0.12002089  0.87868236    -0.14300
F979        F  0.23868019  0.08723456  0.85586308    -0.14300
F980        F  0.33579558  0.02913372  0.83234772    -0.15700
C981        C  0.31920554  0.91191469  0.77258003     0.14400
C982        C  0.30093948  0.89725847  0.75388433     0.01300
C983        C  0.28249853  0.91234655  0.73578577     0.16300
C984        C  0.28180572  0.94161820  0.73685175     0.25700
C985        C  0.29989460  0.95646519  0.75578840    -0.40600
C986        C  0.31885898  0.94122804  0.77338390     0.32800
C987        C  0.30047445  0.86621893  0.75376658     0.01400
F988        F  0.26441876  0.89862270  0.71779463    -0.12900
F989        F  0.33726278  0.95471933  0.79120501    -0.13400
C990        C  0.29079725  0.85144346  0.77850189     0.16300
C991        C  0.28915954  0.82217120  0.77801876     0.25700
C992        C  0.29718971  0.80703818  0.75268266    -0.40500
C993        C  0.30737034  0.82200765  0.72809497     0.32700
C994        C  0.30890399  0.85127560  0.72865328     0.14400
F995        F  0.28219103  0.86547701  0.80289538    -0.12900
F996        F  0.31638495  0.80833468  0.70363499    -0.13400
F997        F  0.27894082  0.80875285  0.80209535    -0.15700
F998        F  0.31891505  0.86508711  0.70472482    -0.14300
F999        F  0.33749502  0.89778175  0.78996700    -0.14300
F1000       F  0.26252790  0.95533117  0.72029703    -0.15700
C1001       C  0.09991258  0.69150014  0.75671565     0.14400
C1002       C  0.11777550  0.71255694  0.74612673     0.01300
C1003       C  0.10621886  0.73659294  0.73320671     0.16300
C1004       C  0.07720966  0.73977500  0.73114715     0.25700
C1005       C  0.05919815  0.71906871  0.74227318    -0.40600
C1006       C  0.07077232  0.69481777  0.75498428     0.32800
C1007       C  0.14851826  0.71032039  0.74916551     0.01400
F1008       F  0.12316075  0.75716252  0.72287270    -0.12900
F1009       F  0.05384222  0.67432520  0.76549404    -0.13400
C1010       C  0.16441551  0.69630105  0.72776879     0.16300
C1011       C  0.19369892  0.69767266  0.72839073     0.25700
C1012       C  0.20756819  0.71296684  0.75060712    -0.40500
C1013       C  0.19149483  0.72580019  0.77286744     0.32700
C1014       C  0.16224073  0.72464379  0.77197848     0.14400
F1015       F  0.15152494  0.68201923  0.70575343    -0.12900
F1016       F  0.20400481  0.74064214  0.79472216    -0.13400
F1017       F  0.20848541  0.68405210  0.70724368    -0.15700
F1018       F  0.14719594  0.73826233  0.79291559    -0.14300
F1019       F  0.11070234  0.66798926  0.76905195    -0.14300
F1020       F  0.06665913  0.76354339  0.71912541    -0.15700
C1021       C  0.60444684  0.74877926  0.47654574     0.14400
C1022       C  0.61873049  0.76681267  0.99500168     0.01300
C1023       C  0.60246352  0.78229435  0.01500075     0.16300
C1024       C  0.57334171  0.77919730  0.01557886     0.25700
C1025       C  0.55996780  0.76022061  0.99641069    -0.40600
C1026       C  0.57543725  0.74519803  0.47755723     0.32800
C1027       C  0.64963810  0.76925107  0.99489345     0.01400
F1028       F  0.61479234  0.80066654  0.03377000    -0.12900
F1029       F  0.56356339  0.72556799  0.45989943    -0.13400
C1030       C  0.66393766  0.77719118  0.96917390     0.16300
C1031       C  0.69322023  0.77761538  0.96851136     0.25700
C1032       C  0.70888761  0.77003966  0.99367349    -0.40500
C1033       C  0.69315306  0.76645915  0.52067331     0.32700
C1034       C  0.66394499  0.76522887  0.52090873     0.14400
F1035       F  0.64946363  0.78452383  0.94460053    -0.12900
F1036       F  0.70695168  0.76034653  0.54602985    -0.13400
F1037       F  0.70609819  0.78535315  0.94311820    -0.15700
F1038       F  0.65065660  0.75754452  0.54609785    -0.14300
F1039       F  0.61974809  0.73281989  0.45775260    -0.14300
F1040       F  0.55822220  0.79515350  0.03452892    -0.15700
C1041       C  0.89731718  0.73086119  0.60326609     0.14400
C1042       C  0.92112910  0.74776147  0.60651154     0.01300
C1043       C  0.92557879  0.76979382  0.58660038     0.16300
C1044       C  0.90577836  0.77588113  0.56477660     0.25700
C1045       C  0.88087865  0.76020951  0.56270388    -0.40600
C1046       C  0.87731076  0.73704572  0.58163980     0.32800
C1047       C  0.93943244  0.74462243  0.63269171     0.01400
F1048       F  0.94868414  0.78612488  0.58907474    -0.12900
F1049       F  0.85412827  0.72073596  0.57973404    -0.13400
C1050       C  0.95633857  0.72086316  0.63658212     0.16300
C1051       C  0.97238134  0.71773843  0.66230631     0.25700
C1052       C  0.97146158  0.73820078  0.68465780    -0.40500
C1053       C  0.95490973  0.76220087  0.68032475     0.32700
C1054       C  0.93908201  0.76534543  0.65462956     0.14400
F1055       F  0.95710100  0.70063297  0.61559304    -0.12900
F1056       F  0.95397591  0.78264165  0.70108833    -0.13400
F1057       F  0.98791820  0.69421708  0.66589525    -0.15700
F1058       F  0.92264089  0.78831709  0.65151760    -0.14300
F1059       F  0.89266413  0.70931296  0.62213852    -0.14300
F1060       F  0.91024960  0.79822616  0.54692682    -0.15700
C1061       C  0.96180963  0.75507340  0.84410616     0.14400
C1062       C  0.93444068  0.74433246  0.84569095     0.01300
C1063       C  0.92416688  0.72853139  0.82189420     0.16300
C1064       C  0.94076448  0.72364095  0.79703403     0.25700
C1065       C  0.96786316  0.73508771  0.79491538    -0.40600
C1066       C  0.97827425  0.75070566  0.81891328     0.32800
C1067       C  0.91608739  0.75039620  0.87146492     0.01400
F1068       F  0.89758847  0.71854455  0.82225575    -0.12900
F1069       F  0.00396559  0.76272134  0.81760041    -0.13400
C1070       C  0.91067067  0.77819061  0.87992431     0.16300
C1071       C  0.89180527  0.78403044  0.90271486     0.25700
C1072       C  0.87757675  0.76223528  0.91722094    -0.40500
C1073       C  0.88323819  0.73442868  0.90908273     0.32700
C1074       C  0.90255811  0.72855624  0.88666903     0.14400
F1075       F  0.92259520  0.79981389  0.86514356    -0.12900
F1076       F  0.87014231  0.71292906  0.92292429    -0.13400
F1077       F  0.88620893  0.81114652  0.90942352    -0.15700
F1078       F  0.90798967  0.70147849  0.87970104    -0.14300
F1079       F  0.97257708  0.76996741  0.86693254    -0.14300
F1080       F  0.93020803  0.70762542  0.77495536    -0.15700
C1081       C  0.81692654  0.88654287  0.60023715     0.14400
C1082       C  0.78979421  0.89196549  0.61081773     0.01300
C1083       C  0.76700944  0.87788600  0.59793844     0.16300
C1084       C  0.77141242  0.85766756  0.57612218     0.25700
C1085       C  0.79862577  0.85171447  0.56614234    -0.40600
C1086       C  0.82125574  0.86689212  0.57787947     0.32800
C1087       C  0.78563524  0.91059737  0.63668645     0.01400
F1088       F  0.74045661  0.88346532  0.60676485    -0.12900
F1089       F  0.84785164  0.86145497  0.56908251    -0.13400
C1090       C  0.79763314  0.93744988  0.63752388     0.16300
C1091       C  0.79651132  0.95351305  0.66329245     0.25700
C1092       C  0.78240247  0.94348227  0.68846180    -0.40500
C1093       C  0.76882744  0.91736140  0.68683611     0.32700
C1094       C  0.77102411  0.90084991  0.66155441     0.14400
F1095       F  0.81092254  0.94796714  0.61350744    -0.12900
F1096       F  0.75354697  0.90756171  0.70985638    -0.13400
F1097       F  0.81039142  0.97827655  0.66393752    -0.15700
F1098       F  0.75984049  0.87474778  0.66192997    -0.14300
F1099       F  0.83950480  0.89908072  0.61269608    -0.14300
F1100       F  0.74904661  0.84381908  0.56484207    -0.15700
C1101       C  0.81141956  0.90344779  0.82496744     0.14400
C1102       C  0.79354574  0.90895871  0.84873672     0.01300
C1103       C  0.77571328  0.93218141  0.84776453     0.16300
C1104       C  0.77495100  0.94921452  0.82268671     0.25700
C1105       C  0.79235849  0.94338742  0.79832325    -0.40600
C1106       C  0.81113862  0.92069238  0.80012496     0.32800
C1107       C  0.79340267  0.89002601  0.87430821     0.01400
F1108       F  0.75857553  0.93791190  0.87084741    -0.12900
F1109       F  0.82924228  0.91512963  0.77781837    -0.13400
C1110       C  0.81226747  0.89423686  0.89747582     0.16300
C1111       C  0.81436161  0.87464912  0.92023582     0.25700
C1112       C  0.79760260  0.85031149  0.92007065    -0.40500
C1113       C  0.77778102  0.84690552  0.89724654     0.32700
C1114       C  0.77582243  0.86658810  0.87454358     0.14400
F1115       F  0.82947565  0.91682227  0.89738267    -0.12900
F1116       F  0.76075678  0.82418603  0.89635813    -0.13400
F1117       F  0.83391350  0.87888637  0.94147802    -0.15700
F1118       F  0.75744086  0.86228824  0.85216959    -0.14300
F1119       F  0.82887015  0.88104606  0.82570409    -0.14300
F1120       F  0.75625702  0.97056324  0.82176610    -0.15700
C1121       C  0.80149550  0.63745993  0.52194344     0.14400
C1122       C  0.79913819  0.62242517  0.49554811     0.01300
C1123       C  0.78694826  0.63463045  0.97112482     0.16300
C1124       C  0.78522969  0.66384795  0.97125185     0.25700
C1125       C  0.79481515  0.68130142  0.49537802    -0.40600
C1126       C  0.79938770  0.66657420  0.52195418     0.32800
C1127       C  0.80157783  0.59171157  0.49581856     0.01400
F1128       F  0.77445351  0.62001375  0.94908476    -0.12900
F1129       F  0.80206242  0.68018473  0.54807931    -0.13400
C1130       C  0.77766869  0.57476126  0.00104126     0.16300
C1131       C  0.77823001  0.54559909  0.00270767     0.25700
C1132       C  0.80682975  0.53323884  0.49792269    -0.40500
C1133       C  0.82679174  0.54935201  0.48283895     0.32700
C1134       C  0.82421498  0.57847194  0.48185849     0.14400
F1135       F  0.75337876  0.58853009  0.00648691    -0.12900
F1136       F  0.84892419  0.53688126  0.46947070    -0.13400
F1137       F  0.75441829  0.53153463  0.00948756    -0.15700
F1138       F  0.84400211  0.59381529  0.46774436    -0.14300
F1139       F  0.80636837  0.62387899  0.54773438    -0.14300
F1140       F  0.77065661  0.67669078  0.94940504    -0.15700
C1141       C  0.95513329  0.25367333  0.77342927     0.14400
C1142       C  0.94285046  0.27600645  0.75794827     0.01300
C1143       C  0.96027310  0.29506804  0.74304538     0.16300
C1144       C  0.98938264  0.29144379  0.74310084     0.25700
C1145       C  0.00158057  0.26880671  0.75822462    -0.40600
C1146       C  0.98416494  0.25018438  0.77368210     0.32800
C1147       C  0.91186506  0.27828842  0.75627906     0.01400
F1148       F  0.94908866  0.31720118  0.72845779    -0.12900
F1149       F  0.99518082  0.22776241  0.78791887    -0.13400
C1150       C  0.89565241  0.27910274  0.78211020     0.16300
C1151       C  0.86640450  0.27799282  0.78065838     0.25700
C1152       C  0.85260149  0.27610063  0.75319918    -0.40500
C1153       C  0.86903037  0.27674218  0.72726142     0.32700
C1154       C  0.89824927  0.27766788  0.72885262     0.14400
F1155       F  0.90822754  0.28071508  0.80889931    -0.12900
F1156       F  0.85701152  0.27597800  0.70014372    -0.13400
F1157       F  0.85175938  0.27830923  0.80629231    -0.15700
F1158       F  0.91329202  0.27673891  0.70347673    -0.14300
F1159       F  0.93888884  0.23444369  0.78727792    -0.14300
F1160       F  0.00568743  0.31012366  0.72851545    -0.15700
C1161       C  0.75665445  0.07630912  0.76255197     0.14400
C1162       C  0.77260932  0.09270195  0.74309321     0.01300
C1163       C  0.79189468  0.07962973  0.72424655     0.16300
C1164       C  0.79511199  0.05058028  0.72473351     0.25700
C1165       C  0.77906105  0.03410513  0.74408238    -0.40600
C1166       C  0.75987515  0.04724103  0.76308475     0.32800
C1167       C  0.77002749  0.12352777  0.74330543     0.01400
F1168       F  0.80816495  0.09511221  0.70593319    -0.12900
F1169       F  0.74378463  0.03187164  0.78167955    -0.13400
C1170       C  0.77639421  0.13851888  0.76899391     0.16300
C1171       C  0.77497208  0.16766591  0.76925342     0.25700
C1172       C  0.76706890  0.18259580  0.74368356    -0.40500
C1173       C  0.76050855  0.16737989  0.71792278     0.32700
C1174       C  0.76199168  0.13812068  0.71779377     0.14400
F1175       F  0.78485462  0.12490172  0.79371344    -0.12900
F1176       F  0.75250183  0.18068199  0.69285742    -0.13400
F1177       F  0.78214967  0.18117594  0.79448116    -0.15700
F1178       F  0.75534912  0.12396761  0.69279612    -0.14300
F1179       F  0.73768522  0.08847323  0.78076977    -0.14300
F1180       F  0.81445911  0.03858274  0.70683740    -0.15700
C1181       C  0.81452193  0.40083481  0.58302984     0.14400
C1182       C  0.79695871  0.41077343  0.60563390     0.01300
C1183       C  0.78545505  0.43771657  0.60301185     0.16300
C1184       C  0.78955387  0.45350127  0.57741674     0.31300
C1185       C  0.80624936  0.44315947  0.55418298    -0.40600
C1186       C  0.81952191  0.41705351  0.55786246     0.32800
C1187       C  0.78888056  0.39235043  0.63072050     0.01400
F1188       F  0.76953467  0.44852776  0.62502772    -0.12900
F1189       F  0.83707287  0.40695558  0.53687175    -0.13400
C1190       C  0.80923871  0.37829404  0.64754262     0.16300
C1191       C  0.80126555  0.35913954  0.66936089     0.25700
C1192       C  0.77279588  0.35421640  0.67533008    -0.40500
C1193       C  0.75247616  0.36914208  0.65941436     0.32700
C1194       C  0.76041095  0.38769767  0.63707737     0.14400
F1195       F  0.83687104  0.38295362  0.64272865    -0.12900
F1196       F  0.72484086  0.36435640  0.66408444    -0.13400
F1197       F  0.82139383  0.34524144  0.68457997    -0.15700
F1198       F  0.74015411  0.39998271  0.62056306    -0.14300
F1199       F  0.82581346  0.37482083  0.58457091    -0.14300
F1200       F  0.77578719  0.47821265  0.57486466    -0.15700
C1201       C  0.75752549  0.41641814  0.91272335     0.14400
C1202       C  0.78030668  0.40734349  0.89559677     0.01300
C1203       C  0.80758533  0.41485985  0.90410773     0.16300
C1204       C  0.81200229  0.43110241  0.92935914     0.25700
C1205       C  0.78926697  0.43982672  0.94660884    -0.40600
C1206       C  0.76199881  0.43248236  0.93813216     0.32800
C1207       C  0.77578622  0.38834046  0.87018657     0.01400
F1208       F  0.82994434  0.40621999  0.88806705    -0.12900
F1209       F  0.73979102  0.44059883  0.95469944    -0.13400
C1210       C  0.76038795  0.39690314  0.84537074     0.16300
C1211       C  0.75516943  0.37819771  0.82211092     0.25700
C1212       C  0.76515899  0.35044142  0.82337618    -0.40500
C1213       C  0.78133269  0.34238655  0.84815145     0.32700
C1214       C  0.78641271  0.36106527  0.87117821     0.14400
F1215       F  0.75038867  0.42342714  0.84370862    -0.12900
F1216       F  0.79205912  0.31618400  0.85061918    -0.13400
F1217       F  0.73991753  0.38719168  0.79872398    -0.15700
F1218       F  0.80106027  0.35214393  0.89506012    -0.14300
F1219       F  0.73105896  0.40882069  0.90542481    -0.14300
F1220       F  0.83851041  0.43785086  0.93739008    -0.15700
C1221       C  0.67484061  0.25185651  0.61967020     0.14400
C1222       C  0.64622695  0.25056882  0.62660780     0.01300
C1223       C  0.63765487  0.25761041  0.65538278     0.16300
C1224       C  0.65731289  0.26589969  0.67669511     0.25700
C1225       C  0.68604390  0.26684320  0.66981491    -0.40600
C1226       C  0.69447508  0.25963604  0.64095038     0.32800
C1227       C  0.62561201  0.24296650  0.60326795     0.01400
F1228       F  0.61025351  0.25606424  0.66301936    -0.12900
F1229       F  0.72178380  0.26088092  0.63282767    -0.13400
C1230       C  0.62951473  0.21876650  0.58599144     0.16300
C1231       C  0.61269653  0.21379799  0.56126475     0.25700
C1232       C  0.59120886  0.23253048  0.55374873    -0.40500
C1233       C  0.58604648  0.25566918  0.57206913     0.32700
C1234       C  0.60326779  0.26102632  0.59641468     0.14400
F1235       F  0.65003455  0.20019826  0.59272672    -0.12900
F1236       F  0.56538627  0.27406557  0.56531445    -0.13400
F1237       F  0.61762326  0.19087346  0.54436248    -0.15700
F1238       F  0.59913537  0.28481072  0.61216504    -0.14300
F1239       F  0.68383223  0.24640748  0.59184686    -0.14300
F1240       F  0.64821907  0.27249331  0.70417664    -0.15700
C1241       C  0.59817248  0.26414330  0.89538724     0.14400
C1242       C  0.62375642  0.25008876  0.89091983     0.01300
C1243       C  0.63315581  0.23152895  0.91294868     0.16300
C1244       C  0.61766687  0.22746484  0.93885292     0.25700
C1245       C  0.59258153  0.24218252  0.94371833    -0.40600
C1246       C  0.58290424  0.26041296  0.92154910     0.32800
C1247       C  0.64140088  0.25580674  0.86426068     0.01400
F1248       F  0.65795961  0.21801235  0.90995734    -0.12900
F1249       F  0.55915661  0.27548753  0.92565373    -0.13400
C1250       C  0.64855341  0.28346377  0.85658667     0.16300
C1251       C  0.66696956  0.28885911  0.83321276     0.25700
C1252       C  0.67945004  0.26675184  0.81749048    -0.40500
C1253       C  0.67179356  0.23913570  0.82452714     0.32700
C1254       C  0.65261848  0.23374132  0.84731197     0.14400
F1255       F  0.63904702  0.30533841  0.87283197    -0.12900
F1256       F  0.68297951  0.21733932  0.80939312    -0.13400
F1257       F  0.67413189  0.31577158  0.82732894    -0.15700
F1258       F  0.64520167  0.20686756  0.85298468    -0.14300
F1259       F  0.58793463  0.28164095  0.87442858    -0.14300
F1260       F  0.62727338  0.20906451  0.95928194    -0.15700
C1261       C  0.39744259  0.21240592  0.97881792     0.14400
C1262       C  0.41250168  0.22154950  0.00359071     0.01300
C1263       C  0.39677868  0.22700368  0.52899178     0.16300
C1264       C  0.36748439  0.22653227  0.52998604     0.25700
C1265       C  0.35314019  0.22038172  0.00443048    -0.40600
C1266       C  0.36815438  0.21174899  0.97918377     0.32800
C1267       C  0.44348646  0.22387989  0.00243077     0.01400
F1268       F  0.41119121  0.23511702  0.55333313    -0.12900
F1269       F  0.35461887  0.20261370  0.95469037    -0.13400
C1270       C  0.45599461  0.24621130  0.50720780     0.16300
C1271       C  0.48521463  0.24781683  0.50581753     0.25700
C1272       C  0.50253941  0.22925612  0.00044295    -0.40500
C1273       C  0.48967006  0.21065677  0.02045332     0.32700
C1274       C  0.46045436  0.20820158  0.02157937     0.14400
F1275       F  0.44113073  0.26968208  0.51341859    -0.12900
F1276       F  0.50536022  0.19439561  0.03857926    -0.13400
F1277       F  0.49805080  0.27259827  0.51134939    -0.15700
F1278       F  0.44870844  0.19015618  0.04109325    -0.14300
F1279       F  0.41119308  0.20398990  0.95417595    -0.14300
F1280       F  0.35466958  0.23472491  0.55526238    -0.15700
loop_ 
_geom_bond_atom_site_label_1 
_geom_bond_atom_site_label_2 
_geom_bond_distance 
_geom_bond_site_symmetry_2 
_ccdc_geom_bond_type 
C1            C6   1.407       .  A
C1          C642   1.403       .  A
C1          C632   1.480       .  S
C2            C3   1.404       .  A
C2          C641   1.409   1_554  A
C2            H7   1.083       .  S
C3            C4   1.405   1_554  A
C3          C592   1.486       .  S
C4          C645   1.406       .  A
C4            H8   1.084       .  S
C5            C6   1.410       .  A
C5          C644   1.406       .  A
C5          C605   1.493       .  S
C6            H9   1.082       .  S
Fe10         O26   2.066       .  S
Fe10         O16   2.065       .  S
Fe10         O23   2.066       .  S
Fe10         O15   2.057       .  S
Fe10         O21   1.971       .  S
Fe11         O14   2.062       .  S
Fe11         O18   2.063       .  S
Fe11         O22   2.066       .  S
Fe11         O27   2.056       .  S
Fe11         O21   1.968       .  S
Fe12         O30   2.086       .  S
Fe12         O17   2.079       .  S
Fe12         O24   2.084       .  S
Fe12         O13   2.081       .  S
Fe12         O21   1.979       .  S
O13          C20   1.271       .  A
O14          C28   1.269       .  A
O15          C20   1.267       .  A
O16          C19   1.270       .  A
O17          C29   1.272       .  A
O18          C31   1.268       .  A
C19         C585   1.495       .  S
C19          O24   1.274       .  A
C20         C552   1.482       .  S
O22          C25   1.269       .  A
O23          C25   1.269       .  A
C25         C512   1.491       .  S
O26          C31   1.268       .  A
O27          C29   1.268       .  A
C28         C612   1.481       .  S
C28          O30   1.273       .  A
C29         C572   1.488       .  S
C31         C532   1.490       .  S
C32          C37   1.403   1_556  A
C32         C673   1.400       .  A
C32         C492   1.473       .  S
C33          C34   1.398       .  A
C33         C672   1.399       .  A
C33          H38   1.084       .  S
C34         C675   1.404       .  A
C34         C565   1.475       .  S
C35          C36   1.410       .  A
C35         C674   1.402   1_554  A
C35          H39   1.083       .  S
C36          C37   1.409       .  A
C36         C545   1.495       .  S
C37          H40   1.083       .  S
C41          C42   1.405   1_545  A
C41          C46   1.406   1_545  A
C41         C525   1.484       .  S
C42          C43   1.404       .  A
C42          H47   1.084   1_565  S
C43          C44   1.406       .  A
C43         C465   1.490       .  S
C44          C45   1.406       .  A
C44          H48   1.082       .  S
C45          C46   1.406       .  A
C45         C452   1.493       .  S
C46          H49   1.083       .  S
Fe50         O66   2.062       .  S
Fe50         O56   2.068       .  S
Fe50         O63   2.064       .  S
Fe50         O55   2.063       .  S
Fe50        O701   1.967   1_554  S
Fe51         O54   2.065       .  S
Fe51         O58   2.065       .  S
Fe51         O62   2.068       .  S
Fe51         O67   2.065       .  S
Fe51         O61   1.969       .  S
Fe52         O70   2.071       .  S
Fe52         O57   2.070       .  S
Fe52        O704   2.070       .  S
Fe52        O693   2.072       .  S
Fe52         O61   1.973       .  S
O53        Fe692   2.077   1_554  S
O53          C60   1.271       .  A
O54          C68   1.268       .  A
O55          C60   1.269       .  A
O56          C59   1.270       .  A
O57          C69   1.271       .  A
O58         C711   1.269       .  A
C59         C405   1.488       .  S
C59          O64   1.270       .  A
C60         C445   1.483       .  S
O61        Fe690   1.969       .  S
O62          C65   1.269       .  A
O63         C705   1.268   1_554  A
O64        Fe692   2.069   1_554  S
C65         C392   1.494       .  S
C65         O703   1.270       .  A
O66          C71   1.269   1_554  A
O67          C69   1.270       .  A
C68         C432   1.481       .  S
C68          O70   1.270       .  A
C69         C472   1.493       .  S
C71         C485   1.485       .  S
C71         O698   1.270       .  A
C72          C73   1.411       .  A
C72          C77   1.409       .  A
C72         C365   1.495       .  S
C73          C74   1.410   1_455  A
C73          H78   1.082       .  S
C74          C75   1.406       .  A
C74         C425   1.496       .  S
C75          C76   1.401       .  A
C75          H79   1.083       .  S
C76          C77   1.403   1_655  A
C76         C412   1.486       .  S
C77          H80   1.083       .  S
C81          C82   1.410   1_565  A
C81          C86   1.407   1_565  A
C81         C345   1.488       .  S
C82          C83   1.406       .  A
C82          H87   1.083   1_545  S
C83          C84   1.401       .  A
C83         C312   1.485       .  S
C84          C85   1.401       .  A
C84          H88   1.084       .  S
C85          C86   1.401       .  A
C85         C325   1.478       .  S
C86          H89   1.084   1_545  S
Fe90        O106   2.055       .  S
Fe90         O96   2.070       .  S
Fe90        O103   2.074       .  S
Fe90         O95   2.053       .  S
Fe90        O741   1.969       .  S
Fe91         O94   2.061       .  S
Fe91         O98   2.067       .  S
Fe91        O102   2.060       .  S
Fe91        O107   2.066       .  S
Fe91        O101   1.959       .  S
Fe92        O110   2.092       .  S
Fe92         O97   2.065       .  S
Fe92        O744   2.069       .  S
Fe92        O733   2.087       .  S
Fe92        O101   1.968       .  S
O93        Fe732   2.079       .  S
O93         C100   1.271       .  A
O94         C108   1.268       .  A
O95         C100   1.266       .  A
O96          C99   1.271       .  A
O97         C109   1.270       .  A
O98         C751   1.269       .  A
C99         C272   1.491       .  S
C99         O104   1.271       .  A
C100        C305   1.491       .  S
O101       Fe730   1.961       .  S
O102        C105   1.268       .  A
O103        C745   1.271       .  A
O104       Fe732   2.068       .  S
C105        C625   1.496       .  S
C105        O743   1.272       .  A
O106        C111   1.267       .  A
O107        C109   1.271       .  A
C108        C292   1.483       .  S
C108        O110   1.273       .  A
C109        C332   1.480       .  S
C111        C245   1.489       .  S
C111        O738   1.269   1_554  A
C112        C113   1.409       .  A
C112        C117   1.403       .  A
C112        C505   1.483       .  S
C113        C114   1.409       .  A
C113        H118   1.083       .  S
C114        C115   1.407       .  A
C114        C285   1.492       .  S
C115        C116   1.403       .  A
C115        H119   1.084       .  S
C116        C117   1.398       .  A
C116        C265   1.479       .  S
C117        H120   1.084       .  S
C121        C126   1.404       .  A
C121        C762   1.405       .  A
C121        C252   1.478       .  S
C122        C123   1.406       .  A
C122        C761   1.406   1_554  A
C122        H127   1.084       .  S
C123        C764   1.403   1_554  A
C123        C232   1.483       .  S
C124        C125   1.399       .  A
C124        C763   1.401       .  A
C124        H128   1.084       .  S
C125        C126   1.399       .  A
C125        C205   1.469       .  S
C126        H129   1.084       .  S
Fe130       O146   2.062       .  S
Fe130       O136   2.063       .  S
Fe130       O143   2.071       .  S
Fe130       O135   2.056       .  S
Fe130       O141   1.978       .  S
Fe131       O134   2.059       .  S
Fe131       O138   2.073       .  S
Fe131       O142   2.067       .  S
Fe131       O147   2.068       .  S
Fe131       O141   1.974       .  S
Fe132       O150   2.068       .  S
Fe132       O137   2.061       .  S
Fe132       O144   2.061       .  S
Fe132       O133   2.071       .  S
Fe132       O141   1.980       .  S
O133        C140   1.270       .  A
O134        C148   1.268       .  A
O135        C140   1.268       .  A
O136        C139   1.268       .  A
O137        C149   1.268       .  A
O138        C151   1.270       .  A
C139        C212   1.489       .  S
C139        O144   1.267       .  A
C140        C172   1.488       .  S
O142        C145   1.269       .  A
O143        C145   1.269       .  A
C145        C352   1.493       .  S
O146        C151   1.268       .  A
O147        C149   1.270       .  A
C148        C225   1.488       .  S
C148        O150   1.270       .  A
C149        C192   1.488       .  S
C151        C372   1.491       .  S
C152        C157   1.407       .  A
C152        C793   1.410       .  A
C152        C385   1.487       .  S
C153        C154   1.404       .  A
C153        C792   1.409   1_554  A
C153        H158   1.083       .  S
C154        C795   1.401   1_554  A
C154        C185   1.481       .  S
C155        C156   1.400       .  A
C155        C794   1.401       .  A
C155        H159   1.084       .  S
C156        C157   1.401       .  A
C156        C165   1.480       .  S
C157        H160   1.083       .  S
C161        C162   1.403       .  A
C161        C166   1.394       .  A
C161        F179   1.358       .  S
C162        C163   1.404       .  A
C162        C167   1.474       .  S
C163        C164   1.400       .  A
C163        F168   1.358       .  S
C164        C165   1.408       .  A
C164        F180   1.358       .  S
C165        C166   1.407       .  A
C166        F169   1.358       .  S
C167        C170   1.401       .  A
C167        C174   1.402       .  A
C170        C171   1.397       .  A
C170        F175   1.358       .  S
C171        C172   1.413       .  A
C171        F177   1.358       .  S
C172        C173   1.413       .  A
C173        C174   1.398       .  A
C173        F176   1.358       .  S
C174        F178   1.358       .  S
C181        C182   1.406       .  A
C181        C186   1.401       .  A
C181        F199   1.358       .  S
C182        C183   1.405       .  A
C182        C187   1.481       .  S
C183        C184   1.397       .  A
C183        F188   1.358       .  S
C184        C185   1.406       .  A
C184        F200   1.358       .  S
C185        C186   1.406       .  A
C186        F189   1.358       .  S
C187        C190   1.404       .  A
C187        C194   1.403       .  A
C190        C191   1.399       .  A
C190        F195   1.358       .  S
C191        C192   1.411       .  A
C191        F197   1.358       .  S
C192        C193   1.413       .  A
C193        C194   1.399       .  A
C193        F196   1.358       .  S
C194        F198   1.358       .  S
C201        C202   1.409       .  A
C201        C206   1.395       .  A
C201        F219   1.358       .  S
C202        C203   1.408       .  A
C202        C207   1.483       .  S
C203        C204   1.400       .  A
C203        F208   1.358       .  S
C204        C205   1.403       .  A
C204        F220   1.358       .  S
C205        C206   1.400       .  A
C206        F209   1.358       .  S
C207        C210   1.405       .  A
C207        C214   1.405       .  A
C210        C211   1.398       .  A
C210        F215   1.358       .  S
C211        C212   1.412       .  A
C211        F217   1.358       .  S
C212        C213   1.412       .  A
C213        C214   1.397       .  A
C213        F216   1.358       .  S
C214        F218   1.358       .  S
C221        C222   1.402       .  A
C221        C226   1.399       .  A
C221        F239   1.358       .  S
C222        C223   1.402       .  A
C222        C227   1.476       .  S
C223        C224   1.398       .  A
C223        F228   1.358       .  S
C224        C225   1.412       .  A
C224        F240   1.358       .  S
C225        C226   1.413       .  A
C226        F229   1.358       .  S
C227        C230   1.403       .  A
C227        C234   1.403       .  A
C230        C231   1.397       .  A
C230        F235   1.358       .  S
C231        C232   1.408       .  A
C231        F237   1.358       .  S
C232        C233   1.408       .  A
C233        C234   1.401       .  A
C233        F236   1.358       .  S
C234        F238   1.357       .  S
C241        C242   1.400       .  A
C241        C246   1.397       .  A
C241        F259   1.358       .  S
C242        C883   1.401       .  A
C242        C247   1.473       .  S
C243        C244   1.397       .  A
C243        C882   1.400       .  A
C243        F248   1.358       .  S
C244        C245   1.414       .  A
C244        F260   1.358       .  S
C245        C886   1.414   1_554  A
C246        C885   1.414       .  A
C246        F249   1.358       .  S
C247        C250   1.402       .  A
C247        C894   1.403       .  A
C250        C251   1.397       .  A
C250        F255   1.358       .  S
C251        C252   1.407       .  A
C251        F257   1.358       .  S
C252        C893   1.407       .  A
C253        C254   1.398       .  A
C253        C892   1.406   1_554  A
C253        F256   1.358       .  S
C254        C887   1.404       .  A
C254        F258   1.358       .  S
C261        C262   1.405       .  A
C261        C266   1.398       .  A
C261        F279   1.358       .  S
C262        C263   1.405       .  A
C262        C267   1.480       .  S
C263        C264   1.400       .  A
C263        F268   1.358       .  S
C264        C265   1.407       .  A
C264        F280   1.358       .  S
C265        C266   1.405       .  A
C266        F269   1.358       .  S
C267        C270   1.403       .  A
C267        C274   1.402       .  A
C270        C271   1.401       .  A
C270        F275   1.358       .  S
C271        C272   1.413       .  A
C271        F277   1.358       .  S
C272        C273   1.413       .  A
C273        C274   1.398       .  A
C273        F276   1.358       .  S
C274        F278   1.358       .  S
C281        C282   1.408       .  A
C281        C286   1.404       .  A
C281        F299   1.358       .  S
C282        C283   1.407       .  A
C282        C287   1.492       .  S
C283        C284   1.400       .  A
C283        F288   1.358       .  S
C284        C285   1.409       .  A
C284        F300   1.358       .  S
C285        C286   1.409       .  A
C286        F289   1.358       .  S
C287        C290   1.408       .  A
C287        C294   1.408       .  A
C290        C291   1.402       .  A
C290        F295   1.358       .  S
C291        C292   1.407       .  A
C291        F297   1.358       .  S
C292        C293   1.407       .  A
C293        C294   1.402       .  A
C293        F296   1.358       .  S
C294        F298   1.358       .  S
C301        C302   1.404       .  A
C301        C306   1.399       .  A
C301        F319   1.358       .  S
C302        C303   1.403       .  A
C302        C307   1.482       .  S
C303        C304   1.400       .  A
C303        F308   1.358       .  S
C304        C305   1.414       .  A
C304        F320   1.358       .  S
C305        C306   1.412       .  A
C306        F309   1.358       .  S
C307        C310   1.406       .  A
C307        C314   1.404       .  A
C310        C311   1.403       .  A
C310        F315   1.358       .  S
C311        C312   1.407       .  A
C311        F317   1.358       .  S
C312        C313   1.408       .  A
C313        C314   1.397       .  A
C313        F316   1.358       .  S
C314        F318   1.358       .  S
C321        C322   1.404       .  A
C321        C326   1.395       .  A
C321        F339   1.358       .  S
C322        C323   1.406       .  A
C322        C327   1.478       .  S
C323        C324   1.402       .  A
C323        F328   1.358       .  S
C324        C325   1.406       .  A
C324        F340   1.358       .  S
C325        C326   1.405       .  A
C326        F329   1.358       .  S
C327        C330   1.405       .  A
C327        C334   1.403       .  A
C330        C331   1.400       .  A
C330        F335   1.358       .  S
C331        C332   1.408       .  A
C331        F337   1.358       .  S
C332        C333   1.409       .  A
C333        C334   1.397       .  A
C333        F336   1.358       .  S
C334        F338   1.358       .  S
C341        C342   1.404       .  A
C341        C346   1.400       .  A
C341        F359   1.358       .  S
C342        C343   1.405       .  A
C342        C347   1.482       .  S
C343        C344   1.401       .  A
C343        F348   1.358       .  S
C344        C345   1.409       .  A
C344        F360   1.358       .  S
C345        C346   1.409       .  A
C346        F349   1.358       .  S
C347        C350   1.403       .  A
C347        C354   1.403       .  A
C350        C351   1.401       .  A
C350        F355   1.358       .  S
C351        C352   1.413       .  A
C351        F357   1.358       .  S
C352        C353   1.413       .  A
C353        C354   1.401       .  A
C353        F356   1.358       .  S
C354        F358   1.358       .  S
C361        C362   1.406       .  A
C361        C366   1.403       .  A
C361        F379   1.358       .  S
C362        C363   1.404       .  A
C362        C367   1.486       .  S
C363        C364   1.398       .  A
C363        F368   1.358       .  S
C364        C365   1.411       .  A
C364        F380   1.358       .  S
C365        C366   1.411       .  A
C366        F369   1.358       .  S
C367        C370   1.405       .  A
C367        C374   1.405       .  A
C370        C371   1.400       .  A
C370        F375   1.358       .  S
C371        C372   1.412       .  A
C371        F377   1.358       .  S
C372        C373   1.413       .  A
C373        C374   1.401       .  A
C373        F376   1.358       .  S
C374        F378   1.358       .  S
C381        C386   1.397       .  A
C381       C1022   1.404       .  A
C381        F399   1.358       .  S
C382        C383   1.406       .  A
C382       C1021   1.405       .  A
C382        C387   1.484       .  S
C383        C384   1.400       .  A
C383        F388   1.358       .  S
C384        C385   1.408       .  A
C384        F400   1.358       .  S
C385       C1026   1.410       .  A
C386       C1025   1.411       .  A
C386        F389   1.358       .  S
C387        C390   1.405       .  A
C387       C1034   1.403       .  A
C390        C391   1.401       .  A
C390        F395   1.358       .  S
C391        C392   1.413       .  A
C391        F397   1.358       .  S
C392       C1033   1.414       .  A
C393        C394   1.398       .  A
C393       C1032   1.415   1_554  A
C393        F396   1.358       .  S
C394       C1027   1.402   1_554  A
C394        F398   1.358       .  S
C401        C402   1.403       .  A
C401        C406   1.399       .  A
C401        F419   1.358       .  S
C402        C403   1.404       .  A
C402        C407   1.480       .  S
C403        C404   1.401       .  A
C403        F408   1.358       .  S
C404        C405   1.411       .  A
C404        F420   1.358       .  S
C405        C406   1.412       .  A
C406        F409   1.358       .  S
C407        C410   1.404       .  A
C407        C414   1.404       .  A
C410        C411   1.401       .  A
C410        F415   1.357       .  S
C411        C412   1.408       .  A
C411        F417   1.358       .  S
C412        C413   1.409       .  A
C413        C414   1.399       .  A
C413        F416   1.358       .  S
C414        F418   1.358       .  S
C421        C422   1.408       .  A
C421        C426   1.402       .  A
C421        F439   1.358       .  S
C422        C423   1.405       .  A
C422        C427   1.489       .  S
C423        C424   1.398       .  A
C423        F428   1.358       .  S
C424        C425   1.412       .  A
C424        F440   1.358       .  S
C425        C426   1.411       .  A
C426        F429   1.357   1_655  S
C427        C430   1.407       .  A
C427        C434   1.409       .  A
C430        C431   1.398       .  A
C430        F435   1.358       .  S
C431        C432   1.408       .  A
C431        F437   1.358       .  S
C432        C433   1.407       .  A
C433        C434   1.402       .  A
C433        F436   1.358       .  S
C434        F438   1.358       .  S
C441        C442   1.408       .  A
C441        C446   1.399       .  A
C441        F459   1.358       .  S
C442        C443   1.408       .  A
C442        C447   1.490       .  S
C443        C444   1.402       .  A
C443        F448   1.358       .  S
C444        C445   1.408       .  A
C444        F460   1.358       .  S
C445        C446   1.407       .  A
C446        F449   1.358       .  S
C447        C450   1.407       .  A
C447        C454   1.407       .  A
C450        C451   1.401       .  A
C450        F455   1.358       .  S
C451        C452   1.410       .  A
C451        F457   1.358       .  S
C452        C453   1.410       .  A
C453        C454   1.399       .  A
C453        F456   1.358       .  S
C454        F458   1.358       .  S
C461        C462   1.402       .  A
C461        C466   1.398       .  A
C461        F479   1.358       .  S
C462        C463   1.402       .  A
C462        C467   1.476       .  S
C463        C464   1.401       .  A
C463        F468   1.358       .  S
C464        C465   1.411       .  A
C464        F480   1.357       .  S
C465        C466   1.410       .  A
C466        F469   1.358       .  S
C467        C470   1.401       .  A
C467        C474   1.400       .  A
C470        C471   1.402       .  A
C470        F475   1.358       .  S
C471        C472   1.414       .  A
C471        F477   1.358       .  S
C472        C473   1.415       .  A
C473        C474   1.396       .  A
C473        F476   1.358       .  S
C474        F478   1.358       .  S
C481        C482   1.402   1_554  A
C481        C486   1.398       .  A
C481        F499   1.358       .  S
C482       C1123   1.403       .  A
C482        C487   1.476       .  S
C483        C484   1.397       .  A
C483       C1122   1.401       .  A
C483        F488   1.358       .  S
C484       C1125   1.414       .  A
C484        F500   1.358       .  S
C485        C486   1.411   1_556  A
C485       C1124   1.412       .  A
C486        F489   1.358       .  S
C487        C494   1.406       .  A
C487       C1130   1.403   1_556  A
C490        C491   1.395       .  A
C490       C1127   1.403       .  A
C490        F495   1.358       .  S
C491       C1132   1.405       .  A
C491        F497   1.358       .  S
C492        C493   1.404       .  A
C492       C1131   1.403   1_556  A
C493        C494   1.402       .  A
C493        F496   1.358       .  S
C494        F498   1.358       .  S
C501        C502   1.405       .  A
C501        C506   1.397       .  A
C501        F519   1.358       .  S
C502        C503   1.406       .  A
C502        C507   1.481       .  S
C503        C504   1.401       .  A
C503        F508   1.358       .  S
C504        C505   1.407   1_655  A
C504        F520   1.358   1_655  S
C505        C506   1.408   1_455  A
C506        F509   1.358       .  S
C507        C510   1.403       .  A
C507        C514   1.403       .  A
C510        C511   1.399       .  A
C510        F515   1.358       .  S
C511        C512   1.412       .  A
C511        F517   1.358       .  S
C512        C513   1.413       .  A
C513        C514   1.399       .  A
C513        F516   1.358       .  S
C514        F518   1.358       .  S
C521        C522   1.405       .  A
C521        C526   1.400       .  A
C521        F539   1.358       .  S
C522        C523   1.404       .  A
C522        C527   1.480       .  S
C523        C524   1.399       .  A
C523        F528   1.358       .  S
C524        C525   1.407       .  A
C524        F540   1.358       .  S
C525        C526   1.408       .  A
C526        F529   1.358       .  S
C527        C530   1.402       .  A
C527        C534   1.404       .  A
C530        C531   1.398       .  A
C530        F535   1.358       .  S
C531        C532   1.413       .  A
C531        F537   1.358       .  S
C532        C533   1.412       .  A
C533        C534   1.400       .  A
C533        F536   1.358       .  S
C534        F538   1.358       .  S
C541        C542   1.407       .  A
C541        C546   1.399       .  A
C541        F559   1.358       .  S
C542        C543   1.406       .  A
C542        C547   1.490       .  S
C543        C544   1.400       .  A
C543        F548   1.358       .  S
C544        C545   1.412       .  A
C544        F560   1.357       .  S
C545        C546   1.410       .  A
C546        F549   1.358       .  S
C547        C550   1.408       .  A
C547        C554   1.409       .  A
C550        C551   1.401       .  A
C550        F555   1.358       .  S
C551        C552   1.409       .  A
C551        F557   1.358       .  S
C552        C553   1.406       .  A
C553        C554   1.399       .  A
C553        F556   1.358       .  S
C554        F558   1.358       .  S
C561        C562   1.406       .  A
C561        C566   1.399       .  A
C561        F579   1.358       .  S
C562        C563   1.408       .  A
C562        C567   1.482       .  S
C563        C564   1.398       .  A
C563        F568   1.358       .  S
C564        C565   1.403       .  A
C564        F580   1.358       .  S
C565        C566   1.405       .  A
C566        F569   1.358       .  S
C567        C570   1.406       .  A
C567        C574   1.402       .  A
C570        C571   1.404       .  A
C570        F575   1.358       .  S
C571        C572   1.411       .  A
C571        F577   1.357       .  S
C572        C573   1.412       .  A
C573        C574   1.393       .  A
C573        F576   1.358       .  S
C574        F578   1.359       .  S
C581        C582   1.402       .  A
C581        C586   1.400       .  A
C581        F599   1.358       .  S
C582        C583   1.405       .  A
C582        C587   1.485       .  S
C583        C584   1.404       .  A
C583        F588   1.358       .  S
C584        C585   1.412       .  A
C584        F600   1.357       .  S
C585        C586   1.415       .  A
C586        F589   1.358       .  S
C587        C590   1.407       .  A
C587        C594   1.405       .  A
C590        C591   1.405       .  A
C590        F595   1.358       .  S
C591        C592   1.408       .  A
C591        F597   1.358       .  S
C592        C593   1.406       .  A
C593        C594   1.399       .  A
C593        F596   1.358       .  S
C594        F598   1.358       .  S
C601        C602   1.409       .  A
C601        C606   1.402       .  A
C601        F619   1.358       .  S
C602        C603   1.409       .  A
C602        C607   1.495       .  S
C603        C604   1.402       .  A
C603        F608   1.358       .  S
C604        C605   1.409       .  A
C604        F620   1.358       .  S
C605        C606   1.408       .  A
C606        F609   1.358       .  S
C607        C610   1.410       .  A
C607        C614   1.410       .  A
C610        C611   1.401       .  A
C610        F615   1.358       .  S
C611        C612   1.406       .  A
C611        F617   1.358       .  S
C612        C613   1.406       .  A
C613        C614   1.403       .  A
C613        F616   1.358       .  S
C614        F618   1.358       .  S
C621        C622   1.405       .  A
C621        C626   1.400       .  A
C621        F639   1.358       .  S
C622       C1263   1.406       .  A
C622        C627   1.489       .  S
C623        C624   1.402       .  A
C623       C1262   1.404       .  A
C623        F628   1.358       .  S
C624       C1265   1.414       .  A
C624        F640   1.358       .  S
C625        C626   1.414       .  A
C625       C1264   1.413       .  A
C626        F629   1.358       .  S
C627        C634   1.409       .  A
C627       C1270   1.408       .  A
C630        C631   1.401       .  A
C630       C1267   1.405   1_556  A
C630        F635   1.358       .  S
C631       C1272   1.411   1_556  A
C631        F637   1.358       .  S
C632        C633   1.404       .  A
C632       C1271   1.404       .  A
C633        C634   1.402       .  A
C633        F636   1.358       .  S
C634        F638   1.358       .  S
C641        C646   1.412       .  A
C641       C1272   1.496   1_556  S
C642        C643   1.402       .  A
C642        H647   1.084       .  S
C643        C644   1.404       .  A
C643       C1232   1.482       .  S
C644        H648   1.085       .  S
C645        C646   1.409       .  A
C645       C1245   1.495       .  S
C646        H649   1.082       .  S
Fe650       O666   2.068       .  S
Fe650       O656   2.061       .  S
Fe650       O663   2.064       .  S
Fe650       O655   2.053       .  S
Fe650       O661   1.973       .  S
Fe651       O654   2.073       .  S
Fe651       O658   2.055       .  S
Fe651       O662   2.076       .  S
Fe651       O667   2.048       .  S
Fe651       O661   1.967       .  S
Fe652       O670   2.087       .  S
Fe652       O657   2.091       .  S
Fe652       O664   2.089       .  S
Fe652       O653   2.084       .  S
Fe652       O661   1.979       .  S
O653        C660   1.271       .  A
O654        C668   1.271       .  A
O655        C660   1.265       .  A
O656        C659   1.270       .  A
O657        C669   1.275       .  A
O658        C671   1.266       .  A
C659       C1225   1.492       .  S
C659        O664   1.276       .  A
C660       C1192   1.480       .  S
O662        C665   1.272       .  A
O663        C665   1.269       .  A
C665       C1152   1.496       .  S
O666        C671   1.268       .  A
O667        C669   1.266       .  A
C668       C1252   1.488       .  S
C668        O670   1.273       .  A
C669       C1212   1.496       .  S
C671       C1172   1.488       .  S
C672        C677   1.403       .  A
C672       C1132   1.473       .  S
C673        C674   1.399       .  A
C673        H678   1.084       .  S
C674       C1205   1.475       .  S
C675        C676   1.409       .  A
C675        H679   1.083       .  S
C676        C677   1.407       .  A
C676       C1185   1.494       .  S
C677        H680   1.083       .  S
C681        C682   1.405   1_545  A
C681        C686   1.404   1_545  A
C681       C1165   1.481       .  S
C682        C683   1.405       .  A
C682        H687   1.083   1_565  S
C683        C684   1.404       .  A
C683       C1105   1.488       .  S
C684        C685   1.404       .  A
C684        H688   1.082       .  S
C685        C686   1.403       .  A
C685       C1092   1.490       .  S
C686        H689   1.083       .  S
Fe690       O706   2.054       .  S
Fe690       O696   2.072       .  S
Fe690       O703   2.069       .  S
Fe690       O695   2.059       .  S
Fe691       O694   2.069       .  S
Fe691       O698   2.070       .  S
Fe691       O702   2.072       .  S
Fe691       O707   2.068       .  S
Fe691       O701   1.971       .  S
Fe692       O710   2.075       .  S
Fe692       O697   2.061       .  S
Fe692       O701   1.972       .  S
O693        C700   1.270       .  A
O694        C708   1.270       .  A
O695        C700   1.268       .  A
O696        C699   1.271       .  A
O697        C709   1.270       .  A
C699       C1045   1.489       .  S
C699        O704   1.271       .  A
C700       C1085   1.480       .  S
O702        C705   1.270       .  A
C705       C1032   1.493       .  S
O706        C711   1.267       .  A
O707        C709   1.270       .  A
C708       C1072   1.482       .  S
C708        O710   1.270       .  A
C709       C1112   1.487       .  S
C711       C1125   1.488       .  S
C712        C713   1.407       .  A
C712        C717   1.407       .  A
C712       C1005   1.485       .  S
C713        C714   1.408   1_455  A
C713        H718   1.083       .  S
C714        C715   1.406       .  A
C714       C1065   1.494       .  S
C715        C716   1.404       .  A
C715        H719   1.083       .  S
C716        C717   1.405   1_655  A
C716       C1052   1.488       .  S
C717        H720   1.084       .  S
C721        C722   1.411   1_565  A
C721        C726   1.409   1_565  A
C721        C985   1.493       .  S
C722        C723   1.406       .  A
C722        H727   1.083   1_545  S
C723        C724   1.400       .  A
C723        C952   1.484       .  S
C724        C725   1.400       .  A
C724        H728   1.084       .  S
C725        C726   1.402       .  A
C725        C965   1.478       .  S
C726        H729   1.083   1_545  S
Fe730       O746   2.056       .  S
Fe730       O736   2.075       .  S
Fe730       O743   2.083       .  S
Fe730       O735   2.052       .  S
Fe731       O734   2.065       .  S
Fe731       O738   2.070       .  S
Fe731       O742   2.067       .  S
Fe731       O747   2.068       .  S
Fe731       O741   1.970   1_556  S
Fe732       O750   2.083   1_554  S
Fe732       O737   2.063   1_554  S
Fe732       O741   1.977       .  S
O733        C740   1.273       .  A
O734        C748   1.269       .  A
O735        C740   1.267       .  A
O736        C739   1.272       .  A
O737        C749   1.269       .  A
C739        C912   1.491       .  S
C739        O744   1.272       .  A
C740        C945   1.494       .  S
O742        C745   1.270   1_556  A
C745       C1265   1.496       .  S
O746        C751   1.268       .  A
O747        C749   1.270       .  A
C748        C932   1.483       .  S
C748        O750   1.271       .  A
C749        C972   1.486       .  S
C751        C885   1.488       .  S
C752        C753   1.408       .  A
C752        C757   1.407       .  A
C752       C1145   1.486       .  S
C753        C754   1.407       .  A
C753        H758   1.083       .  S
C754        C755   1.405       .  A
C754        C925   1.491       .  S
C755        C756   1.403       .  A
C755        H759   1.084       .  S
C756        C757   1.402       .  A
C756        C905   1.480       .  S
C757        H760   1.084       .  S
C761        C766   1.402       .  A
C761        C892   1.477       .  S
C762        C763   1.404       .  A
C762        H767   1.084       .  S
C763        C872   1.478       .  S
C764        C765   1.401       .  A
C764        H768   1.084       .  S
C765        C766   1.398       .  A
C765        C845   1.475       .  S
C766        H769   1.084       .  S
Fe770       O786   2.069       .  S
Fe770       O776   2.061       .  S
Fe770       O783   2.070       .  S
Fe770       O775   2.059       .  S
Fe770       O781   1.979       .  S
Fe771       O774   2.063       .  S
Fe771       O778   2.068       .  S
Fe771       O782   2.074       .  S
Fe771       O787   2.060       .  S
Fe771       O781   1.973       .  S
Fe772       O790   2.064       .  S
Fe772       O777   2.069       .  S
Fe772       O784   2.064       .  S
Fe772       O773   2.066       .  S
Fe772       O781   1.981       .  S
O773        C780   1.268       .  A
O774        C788   1.269       .  A
O775        C780   1.268       .  A
O776        C779   1.269       .  A
O777        C789   1.270       .  A
O778        C791   1.268       .  A
C779        C852   1.485       .  S
C779        O784   1.269       .  A
C780        C812   1.487       .  S
O782        C785   1.271       .  A
O783        C785   1.270       .  A
C785        C992   1.491       .  S
O786        C791   1.268       .  A
O787        C789   1.269       .  A
C788        C865   1.488       .  S
C788        O790   1.269       .  A
C789        C832   1.488       .  S
C791       C1012   1.486       .  S
C792        C797   1.408       .  A
C792       C1025   1.490       .  S
C793        C794   1.405       .  A
C793        H798   1.083       .  S
C794        C825   1.482       .  S
C795        C796   1.401       .  A
C795        H799   1.084       .  S
C796        C797   1.402       .  A
C796        C805   1.482       .  S
C797        H800   1.083       .  S
C801        C802   1.403       .  A
C801        C806   1.397       .  A
C801        F819   1.358       .  S
C802        C803   1.403       .  A
C802        C807   1.474       .  S
C803        C804   1.400       .  A
C803        F808   1.358       .  S
C804        C805   1.408       .  A
C804        F820   1.358       .  S
C805        C806   1.408       .  A
C806        F809   1.358       .  S
C807        C810   1.401       .  A
C807        C814   1.402       .  A
C810        C811   1.396       .  A
C810        F815   1.358       .  S
C811        C812   1.412       .  A
C811        F817   1.358       .  S
C812        C813   1.413       .  A
C813        C814   1.400       .  A
C813        F816   1.358       .  S
C814        F818   1.358       .  S
C821        C822   1.404       .  A
C821        C826   1.402       .  A
C821        F839   1.357       .  S
C822        C823   1.402       .  A
C822        C827   1.475       .  S
C823        C824   1.396       .  A
C823        F828   1.358       .  S
C824        C825   1.408       .  A
C824        F840   1.358       .  S
C825        C826   1.408       .  A
C826        F829   1.358       .  S
C827        C830   1.400       .  A
C827        C834   1.402       .  A
C830        C831   1.396       .  A
C830        F835   1.358       .  S
C831        C832   1.413       .  A
C831        F837   1.358       .  S
C832        C833   1.413       .  A
C833        C834   1.402       .  A
C833        F836   1.358       .  S
C834        F838   1.358       .  S
C841        C842   1.405       .  A
C841        C846   1.393       .  A
C841        F859   1.358       .  S
C842        C843   1.406       .  A
C842        C847   1.477       .  S
C843        C844   1.400       .  A
C843        F848   1.358       .  S
C844        C845   1.406       .  A
C844        F860   1.358       .  S
C845        C846   1.404       .  A
C846        F849   1.358       .  S
C847        C850   1.403       .  A
C847        C854   1.403       .  A
C850        C851   1.397       .  A
C850        F855   1.358       .  S
C851        C852   1.412       .  A
C851        F857   1.358       .  S
C852        C853   1.411       .  A
C853        C854   1.397       .  A
C853        F856   1.358       .  S
C854        F858   1.358       .  S
C861        C862   1.403       .  A
C861        C866   1.399       .  A
C861        F879   1.358       .  S
C862        C863   1.402       .  A
C862        C867   1.478       .  S
C863        C864   1.398       .  A
C863        F868   1.358       .  S
C864        C865   1.412       .  A
C864        F880   1.358       .  S
C865        C866   1.412       .  A
C866        F869   1.358       .  S
C867        C870   1.406       .  A
C867        C874   1.404       .  A
C870        C871   1.397       .  A
C870        F875   1.358       .  S
C871        C872   1.406       .  A
C871        F877   1.358       .  S
C872        C873   1.406       .  A
C873        C874   1.399       .  A
C873        F876   1.358       .  S
C874        F878   1.358       .  S
C881        C882   1.401   1_556  A
C881        C886   1.399       .  A
C881        F899   1.358       .  S
C882        C887   1.473       .  S
C883        C884   1.398       .  A
C883        F888   1.358       .  S
C884        C885   1.414       .  A
C884        F900   1.358       .  S
C886        F889   1.358       .  S
C887        C890   1.402   1_554  A
C890        C891   1.397       .  A
C890        F895   1.358       .  S
C891        C892   1.407       .  A
C891        F897   1.358       .  S
C893        C894   1.398       .  A
C893        F896   1.358       .  S
C894        F898   1.358       .  S
C901        C902   1.406       .  A
C901        C906   1.398       .  A
C901        F919   1.358       .  S
C902        C903   1.408       .  A
C902        C907   1.485       .  S
C903        C904   1.403       .  A
C903        F908   1.358       .  S
C904        C905   1.406       .  A
C904        F920   1.358       .  S
C905        C906   1.405       .  A
C906        F909   1.358       .  S
C907        C910   1.405       .  A
C907        C914   1.404       .  A
C910        C911   1.402       .  A
C910        F915   1.358       .  S
C911        C912   1.412       .  A
C911        F917   1.358       .  S
C912        C913   1.412       .  A
C913        C914   1.399       .  A
C913        F916   1.358       .  S
C914        F918   1.358       .  S
C921        C922   1.409       .  A
C921        C926   1.404       .  A
C921        F939   1.358       .  S
C922        C923   1.408       .  A
C922        C927   1.492       .  S
C923        C924   1.399       .  A
C923        F928   1.358       .  S
C924        C925   1.408       .  A
C924        F940   1.358       .  S
C925        C926   1.409       .  A
C926        F929   1.358       .  S
C927        C930   1.409       .  A
C927        C934   1.409       .  A
C930        C931   1.403       .  A
C930        F935   1.358       .  S
C931        C932   1.407       .  A
C931        F937   1.358       .  S
C932        C933   1.406       .  A
C933        C934   1.401       .  A
C933        F936   1.358       .  S
C934        F938   1.358       .  S
C941        C942   1.403       .  A
C941        C946   1.400       .  A
C941        F959   1.358       .  S
C942        C943   1.402       .  A
C942        C947   1.481       .  S
C943        C944   1.400       .  A
C943        F948   1.358       .  S
C944        C945   1.416       .  A
C944        F960   1.358       .  S
C945        C946   1.413       .  A
C946        F949   1.358       .  S
C947        C950   1.405       .  A
C947        C954   1.404       .  A
C950        C951   1.402       .  A
C950        F955   1.358       .  S
C951        C952   1.406       .  A
C951        F957   1.357       .  S
C952        C953   1.408       .  A
C953        C954   1.399       .  A
C953        F956   1.358       .  S
C954        F958   1.358       .  S
C961        C962   1.405       .  A
C961        C966   1.395       .  A
C961        F979   1.358       .  S
C962        C963   1.406       .  A
C962        C967   1.479       .  S
C963        C964   1.403       .  A
C963        F968   1.358       .  S
C964        C965   1.406       .  A
C964        F980   1.358       .  S
C965        C966   1.405       .  A
C966        F969   1.358       .  S
C967        C970   1.404       .  A
C967        C974   1.403       .  A
C970        C971   1.399       .  A
C970        F975   1.358       .  S
C971        C972   1.411       .  A
C971        F977   1.358       .  S
C972        C973   1.411       .  A
C973        C974   1.398       .  A
C973        F976   1.358       .  S
C974        F978   1.358       .  S
C981        C982   1.405       .  A
C981        C986   1.402       .  A
C981        F999   1.358       .  S
C982        C983   1.404       .  A
C982        C987   1.484       .  S
C983        C984   1.401       .  A
C983        F988   1.358       .  S
C984        C985   1.410       .  A
C984       F1000   1.358       .  S
C985        C986   1.411       .  A
C986        F989   1.358       .  S
C987        C990   1.404       .  A
C987        C994   1.404       .  A
C990        C991   1.402       .  A
C990        F995   1.358       .  S
C991        C992   1.411       .  A
C991        F997   1.358       .  S
C992        C993   1.412       .  A
C993        C994   1.402       .  A
C993        F996   1.358       .  S
C994        F998   1.358       .  S
C1001      C1002   1.405       .  A
C1001      C1006   1.405       .  A
C1001      F1019   1.358       .  S
C1002      C1003   1.403       .  A
C1002      C1007   1.480       .  S
C1003      C1004   1.399       .  A
C1003      F1008   1.358       .  S
C1004      C1005   1.406       .  A
C1004      F1020   1.358       .  S
C1005      C1006   1.408       .  A
C1006      F1009   1.358       .  S
C1007      C1010   1.403       .  A
C1007      C1014   1.404       .  A
C1010      C1011   1.402       .  A
C1010      F1015   1.358       .  S
C1011      C1012   1.411       .  A
C1011      F1017   1.358       .  S
C1012      C1013   1.410       .  A
C1013      C1014   1.401       .  A
C1013      F1016   1.358       .  S
C1014      F1018   1.358       .  S
C1021      C1026   1.399       .  A
C1021      F1039   1.358       .  S
C1022      C1023   1.406   1_556  A
C1022      C1027   1.483       .  S
C1023      C1024   1.401       .  A
C1023      F1028   1.358       .  S
C1024      C1025   1.410   1_554  A
C1024      F1040   1.358       .  S
C1026      F1029   1.358       .  S
C1027      C1030   1.405       .  A
C1030      C1031   1.401       .  A
C1030      F1035   1.358       .  S
C1031      C1032   1.412       .  A
C1031      F1037   1.358       .  S
C1033      C1034   1.398       .  A
C1033      F1036   1.358       .  S
C1034      F1038   1.358       .  S
C1041      C1042   1.404       .  A
C1041      C1046   1.402       .  A
C1041      F1059   1.358       .  S
C1042      C1043   1.404       .  A
C1042      C1047   1.483       .  S
C1043      C1044   1.400       .  A
C1043      F1048   1.358       .  S
C1044      C1045   1.410       .  A
C1044      F1060   1.358       .  S
C1045      C1046   1.412       .  A
C1046      F1049   1.358       .  S
C1047      C1050   1.405       .  A
C1047      C1054   1.404       .  A
C1050      C1051   1.404       .  A
C1050      F1055   1.358       .  S
C1051      C1052   1.409       .  A
C1051      F1057   1.358       .  S
C1052      C1053   1.408       .  A
C1053      C1054   1.398       .  A
C1053      F1056   1.358       .  S
C1054      F1058   1.358       .  S
C1061      C1062   1.408       .  A
C1061      C1066   1.403       .  A
C1061      F1079   1.358       .  S
C1062      C1063   1.406       .  A
C1062      C1067   1.490       .  S
C1063      C1064   1.399       .  A
C1063      F1068   1.358       .  S
C1064      C1065   1.410       .  A
C1064      F1080   1.358       .  S
C1065      C1066   1.411       .  A
C1066      F1069   1.358   1_655  S
C1067      C1070   1.407       .  A
C1067      C1074   1.409       .  A
C1070      C1071   1.400       .  A
C1070      F1075   1.358       .  S
C1071      C1072   1.408       .  A
C1071      F1077   1.358       .  S
C1072      C1073   1.406       .  A
C1073      C1074   1.402       .  A
C1073      F1076   1.358       .  S
C1074      F1078   1.358       .  S
C1081      C1082   1.408       .  A
C1081      C1086   1.398       .  A
C1081      F1099   1.358       .  S
C1082      C1083   1.408       .  A
C1082      C1087   1.486       .  S
C1083      C1084   1.399       .  A
C1083      F1088   1.358       .  S
C1084      C1085   1.407       .  A
C1084      F1100   1.358       .  S
C1085      C1086   1.407       .  A
C1086      F1089   1.358       .  S
C1087      C1090   1.407       .  A
C1087      C1094   1.406       .  A
C1090      C1091   1.399       .  A
C1090      F1095   1.358       .  S
C1091      C1092   1.410       .  A
C1091      F1097   1.358       .  S
C1092      C1093   1.410       .  A
C1093      C1094   1.396       .  A
C1093      F1096   1.358       .  S
C1094      F1098   1.358       .  S
C1101      C1102   1.401       .  A
C1101      C1106   1.396       .  A
C1101      F1119   1.358       .  S
C1102      C1103   1.401       .  A
C1102      C1107   1.471       .  S
C1103      C1104   1.399       .  A
C1103      F1108   1.358       .  S
C1104      C1105   1.411       .  A
C1104      F1120   1.357       .  S
C1105      C1106   1.411       .  A
C1106      F1109   1.358       .  S
C1107      C1110   1.399       .  A
C1107      C1114   1.401       .  A
C1110      C1111   1.398       .  A
C1110      F1115   1.358       .  S
C1111      C1112   1.413       .  A
C1111      F1117   1.358       .  S
C1112      C1113   1.413       .  A
C1113      C1114   1.398       .  A
C1113      F1116   1.358       .  S
C1114      F1118   1.358       .  S
C1121      C1122   1.401       .  A
C1121      C1126   1.396       .  A
C1121      F1139   1.358       .  S
C1122      C1127   1.473       .  S
C1123      C1124   1.399       .  A
C1123      F1128   1.358       .  S
C1124      F1140   1.358       .  S
C1125      C1126   1.413       .  A
C1126      F1129   1.358       .  S
C1127      C1134   1.405       .  A
C1130      C1131   1.397       .  A
C1130      F1135   1.358       .  S
C1131      F1137   1.358       .  S
C1132      C1133   1.405       .  A
C1133      C1134   1.398       .  A
C1133      F1136   1.358       .  S
C1134      F1138   1.358       .  S
C1141      C1142   1.406       .  A
C1141      C1146   1.398       .  A
C1141      F1159   1.358       .  S
C1142      C1143   1.408       .  A
C1142      C1147   1.488       .  S
C1143      C1144   1.403       .  A
C1143      F1148   1.358       .  S
C1144      C1145   1.408   1_655  A
C1144      F1160   1.358   1_655  S
C1145      C1146   1.407   1_455  A
C1146      F1149   1.358       .  S
C1147      C1150   1.406       .  A
C1147      C1154   1.404       .  A
C1150      C1151   1.401       .  A
C1150      F1155   1.358       .  S
C1151      C1152   1.412       .  A
C1151      F1157   1.358       .  S
C1152      C1153   1.415       .  A
C1153      C1154   1.400       .  A
C1153      F1156   1.358       .  S
C1154      F1158   1.358       .  S
C1161      C1162   1.406       .  A
C1161      C1166   1.399       .  A
C1161      F1179   1.358       .  S
C1162      C1163   1.404       .  A
C1162      C1167   1.479       .  S
C1163      C1164   1.398       .  A
C1163      F1168   1.358       .  S
C1164      C1165   1.407       .  A
C1164      F1180   1.358       .  S
C1165      C1166   1.407       .  A
C1166      F1169   1.358       .  S
C1167      C1170   1.401       .  A
C1167      C1174   1.405       .  A
C1170      C1171   1.395       .  A
C1170      F1175   1.358       .  S
C1171      C1172   1.413       .  A
C1171      F1177   1.358       .  S
C1172      C1173   1.412       .  A
C1173      C1174   1.401       .  A
C1173      F1176   1.358       .  S
C1174      F1178   1.358       .  S
C1181      C1182   1.408       .  A
C1181      C1186   1.401       .  A
C1181      F1199   1.358       .  S
C1182      C1183   1.406       .  A
C1182      C1187   1.490       .  S
C1183      C1184   1.399       .  A
C1183      F1188   1.358       .  S
C1184      C1185   1.412       .  A
C1184      F1200   1.357       .  S
C1185      C1186   1.410       .  A
C1186      F1189   1.358       .  S
C1187      C1190   1.408       .  A
C1187      C1194   1.409       .  A
C1190      C1191   1.401       .  A
C1190      F1195   1.358       .  S
C1191      C1192   1.408       .  A
C1191      F1197   1.358       .  S
C1192      C1193   1.405       .  A
C1193      C1194   1.399       .  A
C1193      F1196   1.358       .  S
C1194      F1198   1.358       .  S
C1201      C1202   1.407       .  A
C1201      C1206   1.401       .  A
C1201      F1219   1.358       .  S
C1202      C1203   1.407       .  A
C1202      C1207   1.483       .  S
C1203      C1204   1.400       .  A
C1203      F1208   1.358       .  S
C1204      C1205   1.403       .  A
C1204      F1220   1.358       .  S
C1205      C1206   1.404       .  A
C1206      F1209   1.358       .  S
C1207      C1210   1.406       .  A
C1207      C1214   1.400       .  A
C1210      C1211   1.405       .  A
C1210      F1215   1.357       .  S
C1211      C1212   1.412       .  A
C1211      F1217   1.357       .  S
C1212      C1213   1.417       .  A
C1213      C1214   1.395       .  A
C1213      F1216   1.358       .  S
C1214      F1218   1.359       .  S
C1221      C1222   1.405       .  A
C1221      C1226   1.397       .  A
C1221      F1239   1.358       .  S
C1222      C1223   1.409       .  A
C1222      C1227   1.491       .  S
C1223      C1224   1.405       .  A
C1223      F1228   1.357       .  S
C1224      C1225   1.410       .  A
C1224      F1240   1.357       .  S
C1225      C1226   1.413       .  A
C1226      F1229   1.358       .  S
C1227      C1230   1.410       .  A
C1227      C1234   1.408       .  A
C1230      C1231   1.400       .  A
C1230      F1235   1.358       .  S
C1231      C1232   1.405       .  A
C1231      F1237   1.358       .  S
C1232      C1233   1.405       .  A
C1233      C1234   1.401       .  A
C1233      F1236   1.358       .  S
C1234      F1238   1.357       .  S
C1241      C1242   1.410       .  A
C1241      C1246   1.405       .  A
C1241      F1259   1.358       .  S
C1242      C1243   1.410       .  A
C1242      C1247   1.500       .  S
C1243      C1244   1.403       .  A
C1243      F1248   1.358       .  S
C1244      C1245   1.408       .  A
C1244      F1260   1.358       .  S
C1245      C1246   1.409       .  A
C1246      F1249   1.358       .  S
C1247      C1250   1.410       .  A
C1247      C1254   1.411       .  A
C1250      C1251   1.402       .  A
C1250      F1255   1.358       .  S
C1251      C1252   1.408       .  A
C1251      F1257   1.358       .  S
C1252      C1253   1.407       .  A
C1253      C1254   1.406       .  A
C1253      F1256   1.358       .  S
C1254      F1258   1.358       .  S
C1261      C1262   1.404   1_556  A
C1261      C1266   1.401       .  A
C1261      F1279   1.358       .  S
C1262      C1267   1.487       .  S
C1263      C1264   1.402       .  A
C1263      F1268   1.358       .  S
C1264      F1280   1.358       .  S
C1265      C1266   1.413   1_554  A
C1266      F1269   1.358       .  S
C1267      C1274   1.405       .  A
C1270      C1271   1.401       .  A
C1270      F1275   1.358       .  S
C1271      F1277   1.358       .  S
C1272      C1273   1.412       .  A
C1273      C1274   1.403       .  A
C1273      F1276   1.358       .  S
C1274      F1278   1.358       .  S
