geometry optimzed in LAMMPS
_audit_creation_date              2020-11-30 
_audit_creation_method            'lammps2cif' 
_symmetry_space_group_name_H-M    'P1' 
_symmetry_Int_Tables_number       1 
_symmetry_cell_setting            triclinic 
loop_ 
_symmetry_equiv_pos_as_xyz 
  x,y,z 
_cell_length_a                    27.66866132 
_cell_length_b                    31.218222669598152 
_cell_length_c                    43.344137234916175 
_cell_angle_alpha                 90.01567508208325 
_cell_angle_beta                  90.19777915564701 
_cell_angle_gamma                 90.07972195142652 
loop_ 
_atom_site_label 
_atom_site_type_symbol 
_atom_site_fract_x 
_atom_site_fract_y 
_atom_site_fract_z 
_atom_site_charge 
O1          O  0.96751675  0.06193814  0.96745069    -0.88300
C2          C  0.91470070  0.94091391  0.97688870     0.87800
Mg3        Mg  0.03942393  0.07564923  0.95340689     1.58100
O4          O  0.94071775  0.99392782  0.04660326    -0.88000
O5          O  0.91921262  0.07677588  0.00581700    -0.75300
C6          C  0.17618604  0.94299562  0.03497443     0.92800
O7          O  0.99429646  0.97772017  0.92739434    -0.75200
O8          O  0.17508706  0.96065810  0.00856831    -0.82700
Mg9        Mg  0.92747959  0.01731343  0.93904643     1.58000
C10         C  0.01724364  0.92900035  0.11604393     0.92700
O11         O  0.85762482  0.05482535  0.94432396    -0.80900
H12         H  0.93263668  0.04378294  0.07507411    -0.06300
C13         C  0.04374098  0.91207194  0.01448058     0.87700
O14         O  0.06522252  0.08333283  0.00329371    -0.75400
O15         O  0.91412610  0.98029720  0.97978543    -0.88200
O16         O  0.97827581  0.92573647  0.10028943    -0.81000
C17         C  0.83824188  0.92507928  0.05178711     0.92800
C18         C  0.81945752  0.05456159  0.96054015     0.92700
Mg19       Mg  0.06933265  0.98228953  0.06048808     1.58000
O20         O  0.14054545  0.94480868  0.05359317    -0.80900
O21         O  0.00170113  0.02240346  0.07179335    -0.75200
O22         O  0.83523377  0.95566730  0.03240858    -0.81000
O23         O  0.94158640  0.05489634  0.89527580    -0.82700
O24         O  0.15944398  0.04277260  0.96510832    -0.81000
C25         C  0.95695920  0.02061343  0.06504242     0.87100
O26         O  0.08226064  0.01892364  0.01976485    -0.88200
O27         O  0.02744455  0.93777768  0.03349709    -0.88300
O28         O  0.07224395  0.92372195  0.99313106    -0.75300
Mg29       Mg  0.88088742  0.01371485  0.01759318     1.58000
O30         O  0.87817720  0.91251957  0.06323030    -0.82700
H31         H  0.96021524  0.12130427  0.98404355    -0.06400
O32         O  0.05336014  0.00754054  0.95328990    -0.88000
H33         H  0.06428006  0.95933462  0.92380253    -0.06300
H34         H  0.09421955  0.07111089  0.04539616    -0.06400
C35         C  0.03875723  0.98121741  0.93410674     0.87100
C36         C  0.94923937  0.08813562  0.98530528     0.87700
C37         C  0.08185018  0.05810774  0.02362410     0.87700
H38         H  0.03210123  0.87905714  0.01540699    -0.06400
O39         O  0.92975604  0.91656265  0.99833468    -0.75400
Mg40       Mg  0.11244992  0.98577981  0.98061717     1.58000
H41         H  0.90327857  0.92687956  0.95523804    -0.06400
C42         C  0.97948535  0.07361722  0.88569580     0.92700
O43         O  0.11554517  0.09060107  0.93890057    -0.82700
C44         C  0.15591521  0.07595864  0.94810764     0.92800
O45         O  0.81794103  0.03622859  0.98682579    -0.82700
Mg46       Mg  0.95500125  0.92595851  0.04855261     1.58200
O47         O  0.01634834  0.07866447  0.90293857    -0.81000
O48         O  0.05550423  0.94514425  0.10464871    -0.82700
C49         C  0.99794157  0.20817366  0.64612497     0.45500
H50         H  0.99230392  0.17401613  0.64340017    -0.03500
C51         C  0.00884237  0.28999272  0.64621957     0.45600
H52         H  0.01262823  0.32473068  0.64651353    -0.03500
C53         C  0.00305560  0.22641363  0.67978277    -0.17200
C54         C  0.04521865  0.22133683  0.63048132    -0.16900
C55         C  0.95579427  0.23273927  0.62938006    -0.17300
C56         C  0.00504291  0.27144506  0.67939881    -0.17300
C57         C  0.05143224  0.26517125  0.62989730    -0.16900
C58         C  0.96100246  0.27695643  0.63026631    -0.17200
O59         O  0.02180890  0.56633885  0.03444334    -0.88300
C60         C  0.08237339  0.44858541  0.02460270     0.87800
Mg61       Mg  0.94840310  0.57296448  0.04921675     1.58100
O62         O  0.05169443  0.49876828  0.95468035    -0.88000
O63         O  0.06626972  0.58274928  0.99435523    -0.75300
C64         C  0.82092762  0.43670991  0.96221848     0.92800
O65         O  0.00043191  0.48110992  0.07307219    -0.75200
O66         O  0.81907507  0.45924536  0.98663214    -0.82700
Mg67       Mg  0.06565205  0.52473216  0.06203978     1.58000
C68         C  0.98494881  0.42778839  0.88494228     0.92700
O69         O  0.13561338  0.56492812  0.05589227    -0.80900
H70         H  0.05871324  0.54688220  0.92455513    -0.06300
C71         C  0.95435720  0.41145455  0.98591914     0.87700
O72         O  0.92410818  0.58110325  0.99830870    -0.75400
O73         O  0.08079180  0.48793307  0.02143198    -0.88200
O74         O  0.02329177  0.43135029  0.90111245    -0.81000
C75         C  0.16085837  0.43576027  0.95011973     0.92800
C76         C  0.17154318  0.56693328  0.03750775     0.92700
Mg77       Mg  0.92686768  0.47786179  0.93893102     1.58000
O78         O  0.85953877  0.43495377  0.94634118    -0.80900
O79         O  0.99107977  0.52168803  0.92661644    -0.75200
O80         O  0.16080536  0.46635829  0.96956161    -0.81000
O81         O  0.04855786  0.56294040  0.10557054    -0.82700
O82         O  0.83090918  0.54051865  0.03070107    -0.81000
C83         C  0.03523014  0.52316473  0.93478881     0.87100
O84         O  0.91186729  0.51687582  0.97907639    -0.88200
O85         O  0.97080505  0.43791168  0.96747908    -0.88300
O86         O  0.92290046  0.42181690  0.00590602    -0.75300
Mg87       Mg  0.10992791  0.52231013  0.98265015     1.58000
O88         O  0.12174838  0.42250897  0.93796156    -0.82700
H89         H  0.02284725  0.62520434  0.01631013    -0.06400
O90         O  0.93905039  0.50515429  0.04619149    -0.88000
H91         H  0.93302207  0.45539363  0.07497087    -0.06300
H92         H  0.90060891  0.57021366  0.95451581    -0.06400
C93         C  0.95612487  0.47977552  0.06520051     0.87100
C94         C  0.03666462  0.59287360  0.01549585     0.87700
C95         C  0.91139101  0.55635529  0.97633879     0.87700
H96         H  0.96767386  0.37895927  0.98540762    -0.06400
O97         O  0.06905480  0.42319172  0.00325941    -0.75400
Mg98       Mg  0.88036802  0.48344228  0.01714152     1.58000
H99         H  0.09421851  0.43543480  0.04643046    -0.06400
C100        C  0.00820373  0.57264329  0.11773063     0.92700
O101        O  0.87096419  0.58161510  0.06395952    -0.82700
C102        C  0.83176632  0.57003680  0.05106659     0.92800
O103        O  0.17091866  0.54956292  0.01101918    -0.82700
Mg104      Mg  0.04412257  0.43081232  0.95280822     1.58200
O105        O  0.96956549  0.57139674  0.10157263    -0.81000
O106        O  0.94390775  0.43765934  0.89607661    -0.82700
C107        C  0.00481416  0.79355548  0.35127061     0.45500
H108        H  0.00607618  0.82793836  0.34868521    -0.03500
C109        C  0.00511302  0.71148550  0.35567225     0.45600
H110        H  0.00349883  0.67690558  0.35920792    -0.03500
C111        C  0.01878110  0.77114347  0.32072978    -0.17200
C112        C  0.03967204  0.77692172  0.37728458    -0.16900
C113        C  0.95372545  0.77612446  0.35828844    -0.17300
C114        C  0.02108122  0.72663296  0.32289880    -0.17300
C115        C  0.04129199  0.73254555  0.37784746    -0.16900
C116        C  0.95513357  0.73216424  0.36305521    -0.17200
O117        O  0.52814196  0.05623208  0.53805548    -0.88300
C118        C  0.59312273  0.94018021  0.52446393     0.87800
Mg119      Mg  0.45539225  0.06222033  0.55488306     1.58100
O120        O  0.55696570  0.99230082  0.45632037    -0.88000
O121        O  0.57040881  0.07495088  0.49755551    -0.75300
C122        C  0.32747982  0.92680767  0.46977911     0.92800
O123        O  0.51271516  0.96962676  0.57645031    -0.75200
O124        O  0.32883152  0.94276189  0.49673886    -0.82700
Mg125      Mg  0.57553842  0.01467231  0.56381233     1.58000
C126        C  0.48509737  0.92491697  0.38802511     0.92700
O127        O  0.64251886  0.05652448  0.55619765    -0.80900
H128        H  0.56052245  0.04256448  0.42786636    -0.06300
C129        C  0.46340070  0.90251189  0.48898862     0.87700
O130        O  0.42672370  0.07109809  0.50544731    -0.75400
O131        O  0.59013207  0.97954602  0.52204842    -0.88200
O132        O  0.52446028  0.92486286  0.40335399    -0.81000
C133        C  0.66637379  0.93272150  0.44563034     0.92800
C134        C  0.67717354  0.06265038  0.53741458     0.92700
Mg135      Mg  0.43038724  0.97244333  0.44442044     1.58000
O136        O  0.36246047  0.93085666  0.45093622    -0.80900
O137        O  0.49333203  0.01724056  0.43220912    -0.75200
O138        O  0.66848012  0.96364960  0.46495624    -0.81000
O139        O  0.56071326  0.05218820  0.60804957    -0.82700
O140        O  0.33861891  0.02478962  0.54026611    -0.81000
C141        C  0.53828445  0.01797447  0.43816533     0.87100
O142        O  0.41680000  0.00683854  0.48627272    -0.88200
O143        O  0.47688697  0.93003782  0.47036052    -0.88300
O144        O  0.43462209  0.91127914  0.51089692    -0.75300
Mg145      Mg  0.61585122  0.01668171  0.48305078     1.58000
O146        O  0.62635463  0.91682733  0.43668631    -0.82700
H147        H  0.52672687  0.11565031  0.52095990    -0.06400
O148        O  0.44870371  0.99398778  0.55232382    -0.88000
H149        H  0.44576449  0.94371257  0.58082430    -0.06300
H150        H  0.39924918  0.05968560  0.46274537    -0.06400
C151        C  0.46772737  0.96844687  0.57046307     0.87100
C152        C  0.54138978  0.08368061  0.51932940     0.87700
C153        C  0.41317116  0.04614757  0.48394295     0.87700
H154        H  0.47777790  0.87045000  0.48720394    -0.06400
O155        O  0.57857209  0.91522212  0.50321140    -0.75400
Mg156      Mg  0.39008089  0.97029601  0.52480105     1.58000
H157        H  0.60718101  0.92659784  0.54561222    -0.06400
C158        C  0.52123574  0.06478409  0.62003900     0.92700
O159        O  0.37756356  0.06935258  0.57166254    -0.82700
C160        C  0.33841742  0.05550784  0.55968336     0.92800
O161        O  0.67712141  0.04616881  0.51056767    -0.82700
Mg162      Mg  0.54959240  0.92406501  0.45385709     1.58200
O163        O  0.48104296  0.06240945  0.60560740    -0.81000
O164        O  0.44525928  0.93706859  0.39968717    -0.82700
C165        C  0.49319286  0.71227967  0.14788391     0.45500
H166        H  0.49193411  0.67681429  0.14770585    -0.03500
C167        C  0.49606360  0.79521640  0.14816479     0.45600
H168        H  0.49748432  0.83063075  0.14835103    -0.03500
C169        C  0.49019123  0.73147206  0.18107139    -0.17200
C170        C  0.54042216  0.73055009  0.13346871    -0.16900
C171        C  0.45100098  0.73288002  0.12920745    -0.17300
C172        C  0.49103642  0.77587144  0.18106063    -0.17300
C173        C  0.54221610  0.77485466  0.13411911    -0.16900
C174        C  0.45290794  0.77726731  0.12902097    -0.17200
O175        O  0.46972448  0.57098742  0.47127355    -0.88300
C176        C  0.41658764  0.45034215  0.48032237     0.87800
Mg177      Mg  0.54221228  0.58305324  0.45633722     1.58100
O178        O  0.44631844  0.50032939  0.55052848    -0.88000
O179        O  0.42508560  0.58493707  0.51167525    -0.75300
C180        C  0.68280249  0.45019852  0.53902619     0.92800
O181        O  0.49492539  0.48799774  0.43105744    -0.75200
O182        O  0.68202928  0.46803367  0.51251871    -0.82700
Mg183      Mg  0.42754439  0.52740229  0.44372373     1.58000
C184        C  0.52248428  0.43241085  0.61760058     0.92700
O185        O  0.35583497  0.56345760  0.45077068    -0.80900
H186        H  0.43893704  0.54871593  0.58034493    -0.06300
C187        C  0.54876182  0.41847563  0.51683696     0.87700
O188        O  0.56830882  0.58980498  0.50648596    -0.75400
O189        O  0.41573145  0.48957553  0.48416774    -0.88200
O190        O  0.48328320  0.43042539  0.60204414    -0.81000
C191        C  0.34240737  0.43168298  0.55520926     0.92800
C192        C  0.31997265  0.56431558  0.46915865     0.92700
Mg193      Mg  0.57462894  0.48730918  0.56336123     1.58000
O194        O  0.64578466  0.45008522  0.55649150    -0.80900
O195        O  0.50778467  0.52728852  0.57600131    -0.75200
O196        O  0.33945603  0.46482814  0.53819142    -0.81000
O197        O  0.44006889  0.56668166  0.40046946    -0.82700
O198        O  0.66346025  0.54998991  0.46772316    -0.81000
C199        C  0.46296477  0.52596331  0.56956130     0.87100
O200        O  0.58722594  0.52558541  0.52306203    -0.88200
O201        O  0.53205120  0.44423226  0.53564027    -0.88300
O202        O  0.57793746  0.43013713  0.49588674    -0.75300
Mg203      Mg  0.38576430  0.52237554  0.52364497     1.58000
O204        O  0.38255086  0.41759452  0.56540827    -0.82700
H205        H  0.46497201  0.62972476  0.48934626    -0.06400
O206        O  0.55640022  0.51477650  0.45662936    -0.88000
H207        H  0.56376886  0.46654292  0.42668345    -0.06300
H208        H  0.59735068  0.57809095  0.54868239    -0.06400
C209        C  0.53974434  0.48922671  0.43754420     0.87100
C210        C  0.45343466  0.59668192  0.49029139     0.87700
C211        C  0.58550360  0.56481711  0.52688062     0.87700
H212        H  0.53716652  0.38544592  0.51768881    -0.06400
O213        O  0.43318960  0.42511201  0.50073753    -0.75400
Mg214      Mg  0.61738633  0.49268758  0.48372299     1.58000
H215        H  0.40440240  0.43726050  0.45853245    -0.06400
C216        C  0.47842336  0.58251137  0.38902758     0.92700
O217        O  0.61929038  0.59817492  0.44253424    -0.82700
C218        C  0.66013614  0.58360246  0.45112913     0.92800
O219        O  0.32166379  0.54733000  0.49583755    -0.82700
Mg220      Mg  0.45953107  0.43219807  0.55077165     1.58200
O221        O  0.51791973  0.58505270  0.40441767    -0.81000
O222        O  0.56123010  0.44795946  0.60649603    -0.82700
C223        C  0.49988654  0.29366785  0.85393542     0.45500
H224        H  0.50170287  0.32852641  0.85209411    -0.03500
C225        C  0.49349592  0.21151591  0.85381806     0.45600
H226        H  0.48882283  0.17737625  0.85228749    -0.03500
C227        C  0.50418934  0.27365843  0.82103408    -0.17200
C228        C  0.53809496  0.27187603  0.87575258    -0.16900
C229        C  0.45167445  0.27851377  0.86698942    -0.17300
C230        C  0.50154995  0.22954544  0.82126118    -0.17300
C231        C  0.53828492  0.22686379  0.87244886    -0.16900
C232        C  0.44807026  0.23457848  0.86771345    -0.17200
C233        C  0.50721774  0.30093640  0.79200445     0.01400
C234        C  0.47439126  0.29487244  0.76691320     0.04200
C235        C  0.47794421  0.31982103  0.73994381    -0.11800
C236        C  0.51398916  0.35115578  0.73726500     0.23500
C237        C  0.54542567  0.35896403  0.76211458    -0.12400
C238        C  0.54199366  0.33446182  0.78940455     0.04900
C239        C  0.51942139  0.37482763  0.70769888     0.27400
C240        C  0.55129317  0.35924375  0.68505041    -0.13100
C241        C  0.55344804  0.37902239  0.65590040     0.05400
C242        C  0.52329305  0.41429046  0.64914212    -0.09100
C243        C  0.49228410  0.43053585  0.67209571     0.06300
C244        C  0.49044630  0.41090144  0.70134614    -0.13400
Br245      Br  0.59356137  0.40351217  0.75823297    -0.05500
Br246      Br  0.42047648  0.25626177  0.76912253     0.00100
Br247      Br  0.59563883  0.35592256  0.62464675     0.00600
Br248      Br  0.44730572  0.43245073  0.73256296    -0.03800
Br249      Br  0.58785125  0.34660448  0.82173567     0.00700
Br250      Br  0.43237671  0.31227343  0.70635823    -0.03100
Br251      Br  0.59049172  0.30952993  0.69372026    -0.04000
Br252      Br  0.45300937  0.48019380  0.66360492     0.00000
C253        C  0.47650118  0.59946126  0.35703671     0.01400
C254        C  0.50309314  0.57968187  0.33328380     0.04200
C255        C  0.50219165  0.59669482  0.30311717    -0.11800
C256        C  0.47546072  0.63409160  0.29663660     0.23500
C257        C  0.44734577  0.65288630  0.32008587    -0.12400
C258        C  0.44749433  0.63543424  0.35010376     0.04900
C259        C  0.48064874  0.65614030  0.26623469     0.27400
C260        C  0.51945661  0.68433696  0.26164149    -0.13100
C261        C  0.52267972  0.70872380  0.23433200     0.05400
C262        C  0.48809894  0.70383671  0.21012425    -0.09100
C263        C  0.45168192  0.67194214  0.21404383     0.06300
C264        C  0.44717223  0.64950303  0.24226595    -0.13400
Br265      Br  0.40963867  0.70332572  0.31112764    -0.05500
Br266      Br  0.53989117  0.52869084  0.34200979     0.00100
Br267      Br  0.57781707  0.74552018  0.23046468     0.00600
Br268      Br  0.39487086  0.60944301  0.24856444    -0.03800
Br269      Br  0.40945369  0.66204828  0.38206024     0.00700
Br270      Br  0.53815308  0.56939087  0.27057574    -0.03100
Br271      Br  0.56948840  0.68793622  0.29288951    -0.04000
Br272      Br  0.40561573  0.65897535  0.18210367     0.00000
C273        C  0.48561541  0.90739066  0.35636750     0.01400
C274        C  0.46788433  0.93142675  0.33118483     0.04200
C275        C  0.46689880  0.91327687  0.30139278    -0.11800
C276        C  0.48406675  0.87130538  0.29672274     0.23500
C277        C  0.50256346  0.84771250  0.32174755    -0.12400
C278        C  0.50322161  0.86550917  0.35147660     0.04900
C279        C  0.48276342  0.85128824  0.26566141     0.27400
C280        C  0.44504639  0.82327492  0.25781497    -0.13100
C281        C  0.44722169  0.79909330  0.23040454     0.05400
C282        C  0.48678811  0.80370601  0.20972147    -0.09100
C283        C  0.52211601  0.83559666  0.21671843     0.06300
C284        C  0.52094826  0.85780320  0.24502647    -0.13400
Br285      Br  0.52671090  0.79061419  0.31518809    -0.05500
Br286      Br  0.44713935  0.98976677  0.33720624     0.00100
Br287      Br  0.39291743  0.76300561  0.22117186     0.00600
Br288      Br  0.57302500  0.89599846  0.25667475    -0.03800
Br289      Br  0.52621412  0.83123611  0.38565391     0.00700
Br290      Br  0.44196505  0.94551317  0.26690901    -0.03100
Br291      Br  0.39022167  0.81851603  0.28516482    -0.04000
Br292      Br  0.57470350  0.84869697  0.18950678     0.00000
C293        C  0.50926376  0.20021853  0.79360748     0.01400
C294        C  0.55036243  0.20475487  0.77418219     0.04200
C295        C  0.55514029  0.18006482  0.74712517    -0.11800
C296        C  0.51971460  0.14986807  0.73913291     0.23500
C297        C  0.48047490  0.14285470  0.75895141    -0.12400
C298        C  0.47550429  0.16709547  0.78626724     0.04900
C299        C  0.52167801  0.12786781  0.70867378     0.27400
C300        C  0.50022891  0.14748137  0.68283395    -0.13100
C301        C  0.50046188  0.12684850  0.65400283     0.05400
C302        C  0.52190214  0.08596565  0.65075327    -0.09100
C303        C  0.54455017  0.06676303  0.67655535     0.06300
C304        C  0.54447491  0.08776912  0.70543354    -0.13400
Br305      Br  0.43207365  0.10106071  0.74738406    -0.05500
Br306      Br  0.60289208  0.24220319  0.78432526     0.00100
Br307      Br  0.47367622  0.15634249  0.61864415     0.00600
Br308      Br  0.57564625  0.06202124  0.74069079    -0.03800
Br309      Br  0.41939349  0.15569694  0.81124999     0.00700
Br310      Br  0.61004531  0.18782605  0.72017079    -0.03100
Br311      Br  0.47091456  0.20318894  0.68705359    -0.04000
Br312      Br  0.57405015  0.01109035  0.67282093     0.00000
C313        C  0.27471652  0.58480773  0.45843179     0.01400
C314        C  0.25104081  0.56908764  0.43182850     0.04200
C315        C  0.21079595  0.59090417  0.41955858    -0.11800
C316        C  0.19383629  0.62849948  0.43386017     0.23500
C317        C  0.21587580  0.64282409  0.46140208    -0.12400
C318        C  0.25611506  0.62100684  0.47373672     0.04900
C319        C  0.15447453  0.65406685  0.41915259     0.27400
C320        C  0.16574615  0.68383479  0.39592580    -0.13100
C321        C  0.12929473  0.70991675  0.38305597     0.05400
C322        C  0.08050629  0.70558609  0.39252043    -0.09100
C323        C  0.06896704  0.67247439  0.41375584     0.06300
C324        C  0.10596340  0.64795715  0.42768719    -0.13400
Br325      Br  0.19142965  0.69285654  0.48189909    -0.05500
Br326      Br  0.27282476  0.51671199  0.41277115     0.00100
Br327      Br  0.14683201  0.74878888  0.35064491     0.00600
Br328      Br  0.09054557  0.60511164  0.45820610    -0.03800
Br329      Br  0.28702713  0.64186222  0.51080980     0.00700
Br330      Br  0.17915270  0.56984879  0.38282960    -0.03100
Br331      Br  0.23116995  0.68664312  0.38052339    -0.04000
Br332      Br  0.00286927  0.66046533  0.42478089     0.00000
C333        C  0.70527955  0.60533423  0.44065087     0.01400
C334        C  0.74705763  0.60618040  0.45972942     0.04200
C335        C  0.79100481  0.62274258  0.44840047    -0.11800
C336        C  0.79262490  0.64267653  0.41924315     0.23500
C337        C  0.75051526  0.64371186  0.40076975    -0.12400
C338        C  0.70773052  0.62373921  0.41078813     0.04900
C339        C  0.83827930  0.66248657  0.40768016     0.27400
C340        C  0.85611526  0.70074996  0.42070531    -0.13100
C341        C  0.89708148  0.72099288  0.40801489     0.05400
C342        C  0.91642873  0.70673768  0.37948443    -0.09100
C343        C  0.89854420  0.66786907  0.36690697     0.06300
C344        C  0.86209336  0.64459548  0.38212082    -0.13400
Br345      Br  0.75125161  0.67196722  0.36114115    -0.05500
Br346      Br  0.74434841  0.58741024  0.50220135     0.00100
Br347      Br  0.92623788  0.76767306  0.43051659     0.00600
Br348      Br  0.84333370  0.58854133  0.36732825    -0.03800
Br349      Br  0.65424211  0.61947224  0.38196587     0.00700
Br350      Br  0.84961892  0.61648838  0.47232416    -0.03100
Br351      Br  0.82287470  0.72673729  0.45502522    -0.04000
Br352      Br  0.91636811  0.64952279  0.32629131     0.00000
C353        C  0.71150240  0.91523548  0.43212576     0.01400
C354        C  0.71918710  0.91823579  0.40000071     0.04200
C355        C  0.75961566  0.89843364  0.38639849    -0.11800
C356        C  0.79297112  0.87563109  0.40479476     0.23500
C357        C  0.78646373  0.87424506  0.43705339    -0.12400
C358        C  0.74567087  0.89369141  0.45066845     0.04900
C359        C  0.83312044  0.85134354  0.38983507     0.27400
C360        C  0.82427484  0.81026810  0.37758776    -0.13100
C361        C  0.86110200  0.78840455  0.36156068     0.05400
C362        C  0.90879901  0.80492262  0.36119582    -0.09100
C363        C  0.91246742  0.84985500  0.36531373     0.06300
C364        C  0.87700709  0.87177554  0.38250935    -0.13400
Br365      Br  0.83332316  0.84537198  0.46249259    -0.05500
Br366      Br  0.67456901  0.95019892  0.37456844     0.00100
Br367      Br  0.84209529  0.74598765  0.33181326     0.00600
Br368      Br  0.88645490  0.93125338  0.39280696    -0.03800
Br369      Br  0.73499423  0.88861600  0.49445629     0.00700
Br370      Br  0.76905926  0.90189369  0.34235282    -0.03100
Br371      Br  0.76100620  0.78498209  0.38155446    -0.04000
Br372      Br  0.94190515  0.88338695  0.33307515     0.00000
C373        C  0.07117296  0.80568640  0.39782871     0.01400
C374        C  0.08709978  0.79295202  0.42768925     0.04200
C375        C  0.12873846  0.81179580  0.44100223    -0.11800
C376        C  0.15533771  0.84230755  0.42430669     0.23500
C377        C  0.13572501  0.85884826  0.39693919    -0.12400
C378        C  0.09011361  0.84495992  0.38690925     0.04900
C379        C  0.19927148  0.86235794  0.43779307     0.27400
C380        C  0.19554760  0.90179269  0.45338718    -0.13100
C381        C  0.23742390  0.92285893  0.46389851     0.05400
C382        C  0.28333738  0.90391224  0.45964112    -0.09100
C383        C  0.28678230  0.86362988  0.44495274     0.06300
C384        C  0.24481260  0.84314379  0.43391128    -0.13400
Br385      Br  0.16817138  0.90440898  0.37511136    -0.05500
Br386      Br  0.04661472  0.75867514  0.45373268     0.00100
Br387      Br  0.23145218  0.97920708  0.48195368     0.00600
Br388      Br  0.24954931  0.78897337  0.41307338    -0.03800
Br389      Br  0.04738875  0.89122419  0.37637425     0.00700
Br390      Br  0.14771360  0.79888250  0.48281726    -0.03100
Br391      Br  0.13275413  0.92719121  0.45986846    -0.04000
Br392      Br  0.34864757  0.83560600  0.44067554     0.00000
C393        C  0.41481579  0.30916167  0.88006115     0.01400
C394        C  0.40507226  0.30992547  0.91207107     0.04200
C395        C  0.36508474  0.33258209  0.92359190    -0.11800
C396        C  0.33637899  0.35728719  0.90361167     0.23500
C397        C  0.34963697  0.36147277  0.87249784    -0.12400
C398        C  0.38946087  0.33843083  0.86091262     0.04900
C399        C  0.29192461  0.37817900  0.91546001     0.27400
C400        C  0.24888283  0.35445212  0.91706002    -0.13100
C401        C  0.20773118  0.37194231  0.93112403     0.05400
C402        C  0.20738209  0.41542898  0.94060634    -0.09100
C403        C  0.25103782  0.43944109  0.93880199     0.06300
C404        C  0.29322347  0.42043442  0.92672984    -0.13400
Br405      Br  0.31203663  0.39801712  0.84569849    -0.05500
Br406      Br  0.45100467  0.28758741  0.94104029     0.00100
Br407      Br  0.15425012  0.33406015  0.94010243     0.00600
Br408      Br  0.35301986  0.45229570  0.92488466    -0.03800
Br409      Br  0.40888804  0.34894325  0.81913855     0.00700
Br410      Br  0.34934137  0.33004702  0.96692630    -0.03100
Br411      Br  0.24606267  0.29820939  0.89879664    -0.04000
Br412      Br  0.25450525  0.49852419  0.95204263     0.00000
C413        C  0.77693860  0.41238541  0.95184597     0.01400
C414        C  0.76896576  0.40297082  0.92005820     0.04200
C415        C  0.72728720  0.38033369  0.91066161    -0.11800
C416        C  0.69203446  0.36860144  0.93235588     0.23500
C417        C  0.69856545  0.37922382  0.96363014    -0.12400
C418        C  0.74157251  0.39911118  0.97359767     0.04900
C419        C  0.64798388  0.34500318  0.92227544     0.27400
C420        C  0.60911993  0.36711633  0.90879662    -0.13100
C421        C  0.56770345  0.34445451  0.89897511     0.05400
C422        C  0.56785416  0.29869505  0.89895293    -0.09100
C423        C  0.59963180  0.27983043  0.92069419     0.06300
C424        C  0.64209315  0.30146180  0.92961961    -0.13400
Br425      Br  0.64756004  0.36725266  0.99280628    -0.05500
Br426      Br  0.81294693  0.42190972  0.88825719     0.00100
Br427      Br  0.50839138  0.37708757  0.89886990     0.00600
Br428      Br  0.69216114  0.27136970  0.95167467    -0.03800
Br429      Br  0.75214759  0.40422423  0.01755446     0.00700
Br430      Br  0.71769743  0.36562066  0.86774187    -0.03100
Br431      Br  0.61167347  0.42880940  0.90553630    -0.04000
Br432      Br  0.57782043  0.23419422  0.94681259     0.00000
C433        C  0.21614880  0.58885978  0.04767396     0.01400
C434        C  0.23371957  0.62488674  0.03151673     0.04200
C435        C  0.27514539  0.64660616  0.04228195    -0.11800
C436        C  0.29958988  0.63178807  0.06876888     0.23500
C437        C  0.28402376  0.59408992  0.08355659    -0.12400
C438        C  0.24208128  0.57293359  0.07326809     0.04900
C439        C  0.33829549  0.65804673  0.08319573     0.27400
C440        C  0.38698831  0.65082581  0.07618315    -0.13100
C441        C  0.42360863  0.67332001  0.09213354     0.05400
C442        C  0.41179383  0.70626465  0.11363479    -0.09100
C443        C  0.36199858  0.71301582  0.12028644     0.06300
C444        C  0.32592869  0.68832476  0.10569692    -0.13400
Br445      Br  0.31995219  0.57212158  0.11835185    -0.05500
Br446      Br  0.19989590  0.64564627  0.99551565     0.00100
Br447      Br  0.48911094  0.65820014  0.08275837     0.00600
Br448      Br  0.25882412  0.69384016  0.11756119    -0.03800
Br449      Br  0.22079101  0.52149570  0.09387015     0.00700
Br450      Br  0.29796284  0.69725601  0.02140223    -0.03100
Br451      Br  0.40292305  0.60964311  0.04449217    -0.04000
Br452      Br  0.34104009  0.75239261  0.15147587     0.00000
C453        C  0.78617638  0.59165416  0.06040594     0.01400
C454        C  0.74321326  0.56792993  0.06542224     0.04200
C455        C  0.70098196  0.58872738  0.07566035    -0.11800
C456        C  0.70216053  0.63266465  0.08303893     0.23500
C457        C  0.74499210  0.65620094  0.07841294    -0.12400
C458        C  0.78612239  0.63630402  0.06601480     0.04900
C459        C  0.65831749  0.65460154  0.09511157     0.27400
C460        C  0.63263955  0.68306125  0.07615158    -0.13100
C461        C  0.59506149  0.70816890  0.08844267     0.05400
C462        C  0.57939540  0.70231843  0.11945823    -0.09100
C463        C  0.60205373  0.66946007  0.13707739     0.06300
C464        C  0.64310408  0.64797970  0.12563590    -0.13400
Br465      Br  0.74767456  0.71583259  0.08966137    -0.05500
Br466      Br  0.74219622  0.50653771  0.06058851     0.00100
Br467      Br  0.56421552  0.74776567  0.06086779     0.00600
Br468      Br  0.68051373  0.61097972  0.15232298    -0.03800
Br469      Br  0.84116840  0.67139239  0.05513247     0.00700
Br470      Br  0.64118462  0.55720627  0.07947538    -0.03100
Br471      Br  0.64903715  0.68675168  0.03285973    -0.04000
Br472      Br  0.58034933  0.65418058  0.17768107     0.00000
C473        C  0.03387259  0.69594665  0.29621327     0.01400
C474        C  0.02195036  0.65166684  0.29658157     0.04200
C475        C  0.01015246  0.63038221  0.26876024    -0.11800
C476        C  0.01908358  0.65027151  0.24020533     0.23500
C477        C  0.04327689  0.68992818  0.24011399    -0.12400
C478        C  0.05394155  0.71085135  0.26817225     0.04900
C479        C  0.01289504  0.62606209  0.21065571     0.27400
C480        C  0.05044810  0.59966265  0.20001173    -0.13100
C481        C  0.04710640  0.57939545  0.17097711     0.05400
C482        C  0.00694636  0.58728173  0.15106421    -0.09100
C483        C  0.96737812  0.61131709  0.16319858     0.06300
C484        C  0.97067471  0.63039457  0.19279559    -0.13400
Br485      Br  0.06386233  0.71451612  0.20156496    -0.05500
Br486      Br  0.04270218  0.61544785  0.33018140     0.00100
Br487      Br  0.09712664  0.53865672  0.16048911     0.00600
Br488      Br  0.91757597  0.66331323  0.20916183    -0.03800
Br489      Br  0.11050935  0.74651966  0.26921949     0.00700
Br490      Br  0.98419207  0.57304143  0.26975999    -0.03100
Br491      Br  0.10746539  0.59218275  0.22538262    -0.04000
Br492      Br  0.90772896  0.61926686  0.14047990     0.00000
C493        C  0.29762017  0.40869617  0.56320159     0.01400
C494        C  0.26259646  0.42828763  0.58207324     0.04200
C495        C  0.22088021  0.40540201  0.59070498    -0.11800
C496        C  0.21373339  0.36317117  0.58004828     0.23500
C497        C  0.24740128  0.34468911  0.55965875    -0.12400
C498        C  0.28966899  0.36708767  0.55171669     0.04900
C499        C  0.17301590  0.33705610  0.59214577     0.27400
C500        C  0.17702154  0.31784157  0.62129994    -0.13100
C501        C  0.13835228  0.29369168  0.63334036     0.05400
C502        C  0.09530913  0.28718051  0.61604117    -0.09100
C503        C  0.09443309  0.30297737  0.58536938     0.06300
C504        C  0.13150948  0.32980890  0.57424661    -0.13400
Br505      Br  0.23545538  0.28889496  0.54224974    -0.05500
Br506      Br  0.27285874  0.48572241  0.59722316     0.00100
Br507      Br  0.14710152  0.26966214  0.67332262     0.00600
Br508      Br  0.12547577  0.35738010  0.53450327    -0.03800
Br509      Br  0.33648121  0.34102680  0.52466241     0.00700
Br510      Br  0.17363864  0.43147806  0.61741711    -0.03100
Br511      Br  0.23619913  0.32499812  0.64472886    -0.04000
Br512      Br  0.04633507  0.28502555  0.55656444     0.00000
C513        C  0.92265919  0.30980442  0.61969545     0.01400
C514        C  0.87269983  0.30322378  0.62618455     0.04200
C515        C  0.83634402  0.32723480  0.61122864    -0.11800
C516        C  0.84851545  0.36149485  0.59186502     0.23500
C517        C  0.89736389  0.37264904  0.58844493    -0.12400
C518        C  0.93432149  0.34746597  0.60217637     0.04900
C519        C  0.80933823  0.38734515  0.57688655     0.27400
C520        C  0.79423596  0.37827997  0.54644766    -0.13100
C521        C  0.75388690  0.39958598  0.53350991     0.05400
C522        C  0.72816434  0.43018996  0.55101294    -0.09100
C523        C  0.74494991  0.44065376  0.58101121     0.06300
C524        C  0.78526269  0.41937767  0.59379417    -0.13400
Br525      Br  0.91287693  0.42332945  0.56476763    -0.05500
Br526      Br  0.85195574  0.26739288  0.65936515     0.00100
Br527      Br  0.73237769  0.38466963  0.49251493     0.00600
Br528      Br  0.80748248  0.43363448  0.63481052    -0.03800
Br529      Br  0.99927270  0.36789423  0.59623683     0.00700
Br530      Br  0.76879997  0.31402463  0.61771558    -0.03100
Br531      Br  0.82839923  0.33572889  0.52283610    -0.04000
Br532      Br  0.71381472  0.48524561  0.60461124     0.00000
C533        C  0.91451493  0.20862009  0.61352675     0.01400
C534        C  0.89912325  0.21802532  0.58275497     0.04200
C535        C  0.86005408  0.19571451  0.56917905    -0.11800
C536        C  0.83829494  0.16147194  0.58472408     0.23500
C537        C  0.85401720  0.15046827  0.61438374    -0.12400
C538        C  0.88979324  0.17506544  0.62926894     0.04900
C539        C  0.79721829  0.13791538  0.57056196     0.27400
C540        C  0.74954003  0.15050602  0.57707112    -0.13100
C541        C  0.71034109  0.12700713  0.56513534     0.05400
C542        C  0.71865665  0.08950433  0.54752370    -0.09100
C543        C  0.76678479  0.07729289  0.54070675     0.06300
C544        C  0.80581136  0.10191444  0.55185495    -0.13400
Br545      Br  0.82480802  0.10186993  0.63490928    -0.05500
Br546      Br  0.93049403  0.25957004  0.55718405     0.00100
Br547      Br  0.64548439  0.14790825  0.57215270     0.00600
Br548      Br  0.87148064  0.08591156  0.54237114    -0.03800
Br549      Br  0.89636639  0.16624594  0.67277180     0.00700
Br550      Br  0.83534542  0.21174382  0.52901039    -0.03100
Br551      Br  0.73817013  0.19962965  0.60307019    -0.04000
Br552      Br  0.78037806  0.02535988  0.51806219     0.00000
C553        C  0.08182784  0.18845284  0.61954768     0.01400
C554        C  0.11584556  0.16918008  0.63999112     0.04200
C555        C  0.15354354  0.14340887  0.62860351    -0.11800
C556        C  0.15742166  0.13542234  0.59688541     0.23500
C557        C  0.11995642  0.14885686  0.57706936    -0.12400
C558        C  0.08118274  0.17350545  0.58872503     0.04900
C559        C  0.20223145  0.11470347  0.58491669     0.27400
C560        C  0.24429630  0.13965705  0.58159198    -0.13100
C561        C  0.28830101  0.12068460  0.57277958     0.05400
C562        C  0.29136368  0.07576312  0.56838957    -0.09100
C563        C  0.24914256  0.05050803  0.57265429     0.06300
C564        C  0.20476811  0.07004553  0.58051826    -0.13400
Br565      Br  0.12179409  0.13314519  0.53410522    -0.05500
Br566      Br  0.10985022  0.17176533  0.68387440     0.00100
Br567      Br  0.34353007  0.15747645  0.56604069     0.00600
Br568      Br  0.14782637  0.03553217  0.58719096    -0.03800
Br569      Br  0.02366674  0.17937435  0.56420906     0.00700
Br570      Br  0.20074403  0.11848574  0.65640041    -0.03100
Br571      Br  0.24189356  0.19998203  0.59112054    -0.04000
Br572      Br  0.25210776  0.98872533  0.57056232     0.00000
C573        C  0.99844232  0.30170917  0.70703136     0.01400
C574        C  0.02748781  0.33954813  0.71110986     0.04200
C575        C  0.02353943  0.36468639  0.73815377    -0.11800
C576        C  0.99317916  0.35187015  0.76225583     0.23500
C577        C  0.96275621  0.31634459  0.75813466    -0.12400
C578        C  0.96326173  0.29303720  0.73024533     0.04900
C579        C  0.99391488  0.37487226  0.79245801     0.27400
C580        C  0.02836254  0.36376424  0.81498239    -0.13100
C581        C  0.02441767  0.37963242  0.84527177     0.05400
C582        C  0.98863704  0.41057909  0.85271219    -0.09100
C583        C  0.95671431  0.42451213  0.82902578     0.06300
C584        C  0.95873531  0.40592167  0.79933147    -0.13400
Br585      Br  0.92093559  0.29905219  0.79159549    -0.05500
Br586      Br  0.07688107  0.35758978  0.68263176     0.00100
Br587      Br  0.06597361  0.35488445  0.87645887     0.00600
Br588      Br  0.91401010  0.42340346  0.76748610    -0.03800
Br589      Br  0.91358869  0.25057949  0.72505272     0.00700
Br590      Br  0.06077968  0.41679029  0.74317029    -0.03100
Br591      Br  0.08215736  0.32765639  0.80401663    -0.04000
Br592      Br  0.91124505  0.47028901  0.83610433     0.00000
C593        C  0.58011363  0.19572599  0.88061334     0.01400
C594        C  0.57290094  0.15248743  0.89176917     0.04200
C595        C  0.61097049  0.13020584  0.90651962    -0.11800
C596        C  0.65814593  0.14622397  0.90589346     0.23500
C597        C  0.66777968  0.18403690  0.88960783    -0.12400
C598        C  0.62951748  0.20876951  0.87727065     0.04900
C599        C  0.69823249  0.12132802  0.92037236     0.27400
C600        C  0.70942786  0.12677829  0.95189535    -0.13100
C601        C  0.74866022  0.10476887  0.96528642     0.05400
C602        C  0.77591139  0.07573052  0.94747638    -0.09100
C603        C  0.76281019  0.06844327  0.91626018     0.06300
C604        C  0.72435413  0.09136935  0.90277920    -0.13400
Br605      Br  0.73439950  0.20130461  0.88404742    -0.05500
Br606      Br  0.51719920  0.11643955  0.88378240     0.00100
Br607      Br  0.76656067  0.11680231  0.00750288     0.00600
Br608      Br  0.70651956  0.08117282  0.86028078    -0.03800
Br609      Br  0.64799844  0.25874302  0.85420398     0.00700
Br610      Br  0.59955422  0.07604791  0.92724613    -0.03100
Br611      Br  0.67007261  0.16348751  0.97707511    -0.04000
Br612      Br  0.79599071  0.02574820  0.89192675     0.00000
C613        C  0.20019542  0.09806390  0.93834413     0.01400
C614        C  0.21068601  0.13923837  0.94981951     0.04200
C615        C  0.25220506  0.16102872  0.93973348    -0.11800
C616        C  0.28259052  0.14208377  0.91757260     0.23500
C617        C  0.27223989  0.10078409  0.90622369    -0.12400
C618        C  0.23109969  0.07871551  0.91666099     0.04900
C619        C  0.32453331  0.16614289  0.90534302     0.27400
C620        C  0.31906939  0.19149988  0.87887283    -0.13100
C621        C  0.35878931  0.21423761  0.86694780     0.05400
C622        C  0.40510698  0.21114495  0.88102513    -0.09100
C623        C  0.40960618  0.18601534  0.90821947     0.06300
C624        C  0.36962854  0.16343095  0.92003477    -0.13400
Br625      Br  0.31425047  0.07497149  0.87603738    -0.05500
Br626      Br  0.16818009  0.16556229  0.97949374     0.00100
Br627      Br  0.34790909  0.24835151  0.83085843     0.00600
Br628      Br  0.37599712  0.12834685  0.95658368    -0.03800
Br629      Br  0.21562944  0.02298548  0.90005143     0.00700
Br630      Br  0.26777433  0.21663194  0.95639557    -0.03100
Br631      Br  0.25670619  0.19388040  0.85860428    -0.04000
Br632      Br  0.46831301  0.18424733  0.93178703     0.00000
C633        C  0.00790029  0.19786051  0.70901761     0.01400
C634        C  0.99286236  0.15374730  0.71042368     0.04200
C635        C  0.98077561  0.13501683  0.73897266    -0.11800
C636        C  0.99205418  0.15602216  0.76657195     0.23500
C637        C  0.01652130  0.19522404  0.76565493    -0.12400
C638        C  0.02759871  0.21435420  0.73714719     0.04900
C639        C  0.98731426  0.13299510  0.79631396     0.27400
C640        C  0.94442995  0.13578484  0.81346624    -0.13100
C641        C  0.94121227  0.11569742  0.84247814     0.05400
C642        C  0.98079536  0.09172006  0.85408090    -0.09100
C643        C  0.02329091  0.08799056  0.83619771     0.06300
C644        C  0.02664172  0.10899423  0.80762188    -0.13400
Br645      Br  0.03656336  0.22151070  0.80396437    -0.05500
Br646      Br  0.00412060  0.11186272  0.67820488     0.00100
Br647      Br  0.88378268  0.12450699  0.86693282     0.00600
Br648      Br  0.08572465  0.10580428  0.78404304    -0.03800
Br649      Br  0.08168775  0.25310347  0.73762656     0.00700
Br650      Br  0.95103270  0.07890593  0.74072388    -0.03100
Br651      Br  0.89072961  0.16825929  0.79727911    -0.04000
Br652      Br  0.07702688  0.05332248  0.85010582     0.00000
C653        C  0.58471441  0.80148486  0.12294566     0.01400
C654        C  0.57810967  0.83557697  0.10143007     0.04200
C655        C  0.61826196  0.85738072  0.08904957    -0.11800
C656        C  0.66514793  0.84684527  0.09865928     0.23500
C657        C  0.67214673  0.81621208  0.12182443    -0.12400
C658        C  0.63252912  0.79348193  0.13381632     0.04900
C659        C  0.70757342  0.86869195  0.08511109     0.27400
C660        C  0.73023134  0.85137940  0.05882972    -0.13100
C661        C  0.77339483  0.86961053  0.04784739     0.05400
C662        C  0.79329038  0.90553296  0.06285334    -0.09100
C663        C  0.76993590  0.92352312  0.08858402     0.06300
C664        C  0.72707871  0.90513035  0.09971750    -0.13400
Br665      Br  0.73664901  0.80729301  0.13808986    -0.05500
Br666      Br  0.51544171  0.85259117  0.08667296     0.00100
Br667      Br  0.80583237  0.84515680  0.01271565     0.00600
Br668      Br  0.69526540  0.92926687  0.13523736    -0.03800
Br669      Br  0.64571781  0.75546203  0.16752561     0.00700
Br670      Br  0.60976563  0.90219790  0.05873118    -0.03100
Br671      Br  0.70189859  0.80284666  0.03798769    -0.04000
Br672      Br  0.79735624  0.97299949  0.10886408     0.00000
C673        C  0.22013956  0.91942725  0.04442703     0.01400
C674        C  0.26632630  0.93867352  0.04221937     0.04200
C675        C  0.30750196  0.91658641  0.05287392    -0.11800
C676        C  0.30245529  0.87605788  0.06675249     0.23500
C677        C  0.25671950  0.85635958  0.06799820    -0.12400
C678        C  0.21592457  0.87741504  0.05606932     0.04900
C679        C  0.34462567  0.85454545  0.08123239     0.27400
C680        C  0.37042936  0.82328546  0.06501026    -0.13100
C681        C  0.40704890  0.79961872  0.07988748     0.05400
C682        C  0.41761724  0.80611495  0.11176855    -0.09100
C683        C  0.39364060  0.84053052  0.12700680     0.06300
C684        C  0.35719435  0.86407718  0.11183183    -0.13400
Br685      Br  0.24993347  0.80069209  0.08661344    -0.05500
Br686      Br  0.27343049  0.99598609  0.02608002     0.00100
Br687      Br  0.44471568  0.76208578  0.05456506     0.00600
Br688      Br  0.32244845  0.90888668  0.13318845    -0.03800
Br689      Br  0.15504487  0.84727776  0.05356688     0.00700
Br690      Br  0.37090961  0.94172375  0.04888415    -0.03100
Br691      Br  0.35506838  0.81339346  0.02204014    -0.04000
Br692      Br  0.40629799  0.85531836  0.16927978     0.00000
C693        C  0.01764884  0.79710952  0.29129745     0.01400
C694        C  0.04972677  0.83209962  0.28706689     0.04200
C695        C  0.04660386  0.85823148  0.26067632    -0.11800
C696        C  0.01485667  0.84738341  0.23654959     0.23500
C697        C  0.98305401  0.81247179  0.24024148    -0.12400
C698        C  0.98258820  0.78901651  0.26808425     0.04900
C699        C  0.01706855  0.87101264  0.20664947     0.27400
C700        C  0.98115005  0.90106980  0.19867492    -0.13100
C701        C  0.98171938  0.92102322  0.16942507     0.05400
C702        C  0.01866551  0.91141938  0.14803300    -0.09100
C703        C  0.05624979  0.88323636  0.15696495     0.06300
C704        C  0.05532645  0.86313411  0.18603168    -0.13400
Br705      Br  0.94104496  0.79603089  0.20661861    -0.05500
Br706      Br  0.10355727  0.84097567  0.31416230     0.00100
Br707      Br  0.93306751  0.96303583  0.15938411     0.00600
Br708      Br  0.10667370  0.82435759  0.19752926    -0.03800
Br709      Br  0.93293290  0.74663759  0.27404918     0.00700
Br710      Br  0.08675748  0.90870667  0.25707510    -0.03100
Br711      Br  0.93182662  0.91537982  0.22829109    -0.04000
Br712      Br  0.10837394  0.86986375  0.12914337     0.00000
loop_ 
_geom_bond_atom_site_label_1 
_geom_bond_atom_site_label_2 
_geom_bond_distance 
_geom_bond_site_symmetry_2 
_ccdc_geom_bond_type 
O1           Mg3   2.126   1_655  S
O1           Mg9   2.161       .  S
O1           C36   1.236       .  S
C2           O15   1.236       .  S
C2           O39   1.270       .  A
C2           H41   1.082       .  S
Mg3          O32   2.161       .  S
Mg3          O47   2.279       .  S
Mg3          O43   2.248       .  S
Mg3          O14   2.287   1_556  S
O4          Mg46   2.161       .  S
O4          Mg29   2.166   1_565  S
O4           C25   1.237   1_565  S
O5           C36   1.269   1_554  A
O5          Mg29   2.293       .  S
C6            O8   1.271       .  A
C6           O20   1.278       .  A
C6          C673   1.479       .  S
O7           C35   1.268   1_655  A
O7           Mg9   2.283   1_565  S
O8          Mg40   2.253   1_554  S
Mg9          O15   2.143   1_545  S
Mg9          O23   2.266       .  S
Mg9          O11   2.273       .  S
C10          O48   1.273       .  A
C10          O16   1.278   1_455  A
C10         C702   1.492       .  S
O11          C18   1.271       .  A
H12          C25   1.081       .  S
C13          O27   1.237       .  S
C13          O28   1.271   1_554  A
C13          H38   1.080       .  S
O14          C37   1.268       .  A
O15         Mg29   2.152   1_566  S
O16         Mg46   2.331       .  S
C17          O30   1.272       .  A
C17          O22   1.275       .  A
C17         C662   1.467       .  S
C18          O45   1.276       .  A
C18         C602   1.486       .  S
Mg19         O26   2.134   1_565  S
Mg19         O27   2.151       .  S
Mg19         O20   2.313       .  S
Mg19         O21   2.307   1_565  S
Mg19         O48   2.272       .  S
O21          C25   1.272   1_455  A
O22         Mg29   2.300   1_565  S
O23          C42   1.271       .  A
O24          C44   1.275       .  A
O24         Mg40   2.304   1_545  S
O26         Mg40   2.158   1_544  S
O26          C37   1.235       .  S
O27         Mg46   2.142   1_455  S
O28         Mg40   2.299       .  S
Mg29         O45   2.301   1_554  S
O30         Mg46   2.260       .  S
H31          C36   1.080       .  S
O32         Mg40   2.128   1_545  S
O32          C35   1.235   1_545  S
H33          C35   1.081       .  S
H34          C37   1.081       .  S
O39         Mg46   2.302   1_556  S
C42          O47   1.272   1_655  A
C42         C642   1.483       .  S
O43          C44   1.271       .  A
C44         C613   1.469       .  S
C49          H50   1.084       .  S
C49          C55   1.572       .  S
C49          C54   1.531   1_655  S
C49          C53   1.572   1_655  S
C51          H52   1.089       .  S
C51          C57   1.580       .  S
C51          C56   1.554       .  S
C51          C58   1.545   1_455  S
C53          C56   1.407       .  D
C53         C633   1.555       .  S
C54          C57   1.379       .  D
C54         C553   1.520       .  S
C55          C58   1.388       .  D
C55         C533   1.528       .  S
C56         C573   1.537   1_455  S
C57         C502   1.520       .  S
C58         C513   1.545       .  S
O59         Mg61   2.142   1_455  S
O59         Mg67   2.141       .  S
O59          C94   1.237       .  S
C60          O73   1.237       .  S
C60          O97   1.271       .  A
C60          H99   1.081       .  S
Mg61         O90   2.136       .  S
Mg61        O105   2.342       .  S
Mg61        O101   2.255       .  S
Mg61         O72   2.319   1_554  S
O62        Mg104   2.133       .  S
O62         Mg87   2.142       .  S
O62          C83   1.237       .  S
O63          C94   1.271   1_556  A
O63         Mg87   2.299       .  S
C64          O66   1.272       .  A
C64          O78   1.274       .  A
C64         C413   1.501       .  S
O65          C93   1.272   1_455  A
O65         Mg67   2.311       .  S
O66         Mg98   2.275   1_556  S
Mg67         O73   2.144       .  S
Mg67         O81   2.283       .  S
Mg67         O69   2.322       .  S
C68         O106   1.274       .  A
C68          O74   1.274   1_655  A
C68         C582   1.500       .  S
O69          C76   1.278       .  A
H70          C83   1.081       .  S
C71          O85   1.237       .  S
C71          O86   1.272   1_556  A
C71          H96   1.080       .  S
O72          C95   1.274       .  A
O73         Mg87   2.153   1_554  S
O74        Mg104   2.312       .  S
C75          O88   1.271       .  A
C75          O80   1.274       .  A
C75         C402   1.495       .  S
C76         O103   1.270       .  A
C76         C433   1.476       .  S
Mg77         O84   2.165       .  S
Mg77         O85   2.135       .  S
Mg77         O78   2.316       .  S
Mg77         O79   2.305       .  S
Mg77        O106   2.292       .  S
O79          C83   1.271   1_655  A
O80         Mg87   2.317       .  S
O81         C100   1.273       .  A
O82         C102   1.276       .  A
O82         Mg98   2.325       .  S
O84         Mg98   2.140   1_556  S
O84          C95   1.238       .  S
O85        Mg104   2.140   1_655  S
O86         Mg98   2.309       .  S
Mg87        O103   2.250   1_556  S
O88        Mg104   2.260       .  S
H89          C94   1.080       .  S
O90         Mg98   2.160       .  S
O90          C93   1.236       .  S
H91          C93   1.081       .  S
H92          C95   1.081       .  S
O97        Mg104   2.303   1_554  S
C100        O105   1.277   1_455  A
C100        C482   1.516       .  S
O101        C102   1.270       .  A
C102        C453   1.489       .  S
C107        H108   1.080       .  S
C107        C113   1.545   1_455  S
C107        C112   1.570       .  S
C107        C111   1.548       .  S
C109        H110   1.091       .  S
C109        C115   1.533       .  S
C109        C114   1.562       .  S
C109        C116   1.561   1_455  S
C111        C114   1.394       .  D
C111        C693   1.512       .  S
C112        C115   1.386       .  D
C112        C373   1.533       .  S
C113        C116   1.388       .  D
C113        C362   1.541       .  S
C114        C473   1.544       .  S
C115        C322   1.513       .  S
C116        C342   1.512       .  S
O117       Mg119   2.152       .  S
O117       Mg125   2.155       .  S
O117        C152   1.237       .  S
C118        O131   1.236       .  S
C118        O155   1.270       .  A
C118        H157   1.081       .  S
Mg119       O148   2.141   1_545  S
Mg119       O163   2.308       .  S
Mg119       O159   2.286       .  S
Mg119       O130   2.299       .  S
O120       Mg162   2.142       .  S
O120       Mg145   2.135   1_565  S
O120        C141   1.236   1_565  S
O121        C152   1.271       .  A
O121       Mg145   2.301       .  S
C122        O124   1.271       .  A
C122        O136   1.275       .  A
C122        C382   1.480       .  S
O123        C151   1.271       .  A
O123       Mg125   2.302   1_565  S
O124       Mg156   2.252       .  S
Mg125       O131   2.156   1_545  S
Mg125       O139   2.285       .  S
Mg125       O127   2.291       .  S
C126        O164   1.273       .  A
C126        O132   1.274       .  A
C126        C273   1.477       .  S
O127        C134   1.274       .  A
H128        C141   1.081       .  S
C129        O143   1.237       .  S
C129        O144   1.271       .  A
C129        H154   1.080       .  S
O130        C153   1.270       .  A
O131       Mg145   2.171   1_565  S
O132       Mg162   2.295       .  S
C133        O146   1.272       .  A
C133        O138   1.279       .  A
C133        C353   1.485       .  S
C134        O161   1.272       .  A
C134        C542   1.485       .  S
Mg135       O142   2.142   1_565  S
Mg135       O143   2.160       .  S
Mg135       O136   2.301       .  S
Mg135       O137   2.295   1_565  S
Mg135       O164   2.270       .  S
O137        C141   1.270       .  A
O138       Mg145   2.343   1_565  S
O139        C158   1.274       .  A
O140        C160   1.276       .  A
O140       Mg156   2.320   1_545  S
O142       Mg156   2.155   1_545  S
O142        C153   1.236       .  S
O143       Mg162   2.146       .  S
O144       Mg156   2.299       .  S
Mg145       O161   2.264       .  S
O146       Mg162   2.265       .  S
H147        C152   1.080       .  S
O148       Mg156   2.141       .  S
O148        C151   1.237       .  S
H149        C151   1.081       .  S
H150        C153   1.081       .  S
O155       Mg162   2.299       .  S
C158        O163   1.276       .  A
C158        C302   1.486       .  S
O159        C160   1.274       .  A
C160        C562   1.498       .  S
C165        H166   1.108       .  S
C165        C171   1.558       .  S
C165        C170   1.558       .  S
C165        C169   1.561       .  S
C167        H168   1.106       .  S
C167        C173   1.553       .  S
C167        C172   1.555       .  S
C167        C174   1.555       .  S
C169        C172   1.386       .  D
C169        C262   1.528       .  S
C170        C173   1.384       .  D
C170        C462   1.522       .  S
C171        C174   1.387       .  D
C171        C442   1.521       .  S
C172        C282   1.521       .  S
C173        C653   1.520       .  S
C174        C682   1.524       .  S
O175       Mg177   2.143       .  S
O175       Mg183   2.150       .  S
O175        C210   1.237       .  S
C176        O189   1.236       .  S
C176        O213   1.270       .  A
C176        H215   1.082       .  S
Mg177       O206   2.168       .  S
Mg177       O221   2.347       .  S
Mg177       O217   2.266       .  S
Mg177       O188   2.298       .  S
O178       Mg220   2.159       .  S
O178       Mg203   2.151       .  S
O178        C199   1.237       .  S
O179        C210   1.270       .  A
O179       Mg203   2.295       .  S
C180        O182   1.277       .  A
C180        O194   1.276       .  A
C180        C522   1.494       .  S
O181        C209   1.271       .  A
O181       Mg183   2.303       .  S
O182       Mg214   2.310       .  S
Mg183       O189   2.140       .  S
Mg183       O197   2.268       .  S
Mg183       O185   2.304       .  S
C184        O222   1.272       .  A
C184        O190   1.277       .  A
C184        C242   1.480       .  S
O185        C192   1.275       .  A
H186        C199   1.081       .  S
C187        O201   1.236       .  S
C187        O202   1.270       .  A
C187        H212   1.080       .  S
O188        C211   1.271       .  A
O189       Mg203   2.162       .  S
O190       Mg220   2.316       .  S
C191        O204   1.273       .  A
C191        O196   1.273       .  A
C191        C493   1.474       .  S
C192        O219   1.273       .  A
C192        C313   1.480       .  S
Mg193       O200   2.146       .  S
Mg193       O201   2.151       .  S
Mg193       O194   2.308       .  S
Mg193       O195   2.300       .  S
Mg193       O222   2.269       .  S
O195        C199   1.271       .  A
O196       Mg203   2.295       .  S
O197        C216   1.272       .  A
O198        C218   1.276       .  A
O198       Mg214   2.304       .  S
O200       Mg214   2.161       .  S
O200        C211   1.237       .  S
O201       Mg220   2.146       .  S
O202       Mg214   2.298       .  S
Mg203       O219   2.279       .  S
O204       Mg220   2.270       .  S
H205        C210   1.080       .  S
O206       Mg214   2.166       .  S
O206        C209   1.236       .  S
H207        C209   1.081       .  S
H208        C211   1.081       .  S
O213       Mg220   2.296       .  S
C216        O221   1.281       .  A
C216        C253   1.485       .  S
O217        C218   1.273       .  A
C218        C333   1.493       .  S
C223        H224   1.092       .  S
C223        C229   1.525       .  S
C223        C228   1.572       .  S
C223        C227   1.562       .  S
C225        H226   1.075       .  S
C225        C231   1.552       .  S
C225        C230   1.536       .  S
C225        C232   1.571       .  S
C227        C230   1.379       .  D
C227        C233   1.522       .  S
C228        C231   1.412       .  D
C228        C422   1.543       .  S
C229        C232   1.375       .  D
C229        C393   1.511       .  S
C230        C293   1.524       .  S
C231        C593   1.552       .  S
C232        C622   1.511       .  S
C233        C234   1.427       .  A
C233        C238   1.425       .  A
C234        C235   1.408       .  A
C234       Br246   1.919       .  S
C235        C236   1.401       .  A
C235       Br250   1.937       .  S
C236        C239   1.487       .  S
C236        C237   1.403       .  A
C237        C238   1.412       .  A
C237       Br245   1.932       .  S
C238       Br249   1.924       .  S
C239        C240   1.409       .  A
C239        C244   1.410       .  A
C240        C241   1.408       .  A
C240       Br251   1.931       .  S
C241        C242   1.413       .  A
C241       Br247   1.931       .  S
C242        C243   1.411       .  A
C243        C244   1.409       .  A
C243       Br252   1.929       .  S
C244       Br248   1.929       .  S
C253        C254   1.410       .  A
C253        C258   1.413       .  A
C254        C255   1.412       .  A
C254       Br266   1.928       .  S
C255        C256   1.411       .  A
C255       Br270   1.928       .  S
C256        C259   1.494       .  S
C256        C257   1.410       .  A
C257        C258   1.411       .  A
C257       Br265   1.929       .  S
C258       Br269   1.931       .  S
C259        C260   1.402       .  A
C259        C264   1.405       .  A
C260        C261   1.411       .  A
C260       Br271   1.936       .  S
C261        C262   1.426       .  A
C261       Br267   1.916       .  S
C262        C263   1.426       .  A
C263        C264   1.416       .  A
C263       Br272   1.921       .  S
C264       Br268   1.931       .  S
C273        C274   1.412       .  A
C273        C278   1.412       .  A
C274        C275   1.410       .  A
C274       Br286   1.928       .  S
C275        C276   1.409       .  A
C275       Br290   1.928       .  S
C276        C279   1.484       .  S
C276        C277   1.407       .  A
C277        C278   1.403       .  A
C277       Br285   1.926       .  S
C278       Br289   1.934       .  S
C279        C280   1.402       .  A
C279        C284   1.401       .  A
C280        C281   1.409       .  A
C280       Br291   1.934       .  S
C281        C282   1.425       .  A
C281       Br287   1.918       .  S
C282        C283   1.426       .  A
C283        C284   1.410       .  A
C283       Br292   1.920       .  S
C284       Br288   1.935       .  S
C293        C294   1.424       .  A
C293        C298   1.428       .  A
C294        C295   1.410       .  A
C294       Br306   1.914       .  S
C295        C296   1.402       .  A
C295       Br310   1.935       .  S
C296        C299   1.489       .  S
C296        C297   1.404       .  A
C297        C298   1.412       .  A
C297       Br305   1.933       .  S
C298       Br309   1.929       .  S
C299        C300   1.407       .  A
C299        C304   1.410       .  A
C300        C301   1.406       .  A
C300       Br311   1.929       .  S
C301        C302   1.415       .  A
C301       Br307   1.934       .  S
C302        C303   1.414       .  A
C303        C304   1.413       .  A
C303       Br312   1.928       .  S
C304       Br308   1.928       .  S
C313        C314   1.412       .  A
C313        C318   1.409       .  A
C314        C315   1.409       .  A
C314       Br326   1.930       .  S
C315        C316   1.409       .  A
C315       Br330   1.929       .  S
C316        C319   1.492       .  S
C316        C317   1.411       .  A
C317        C318   1.410       .  A
C317       Br325   1.922       .  S
C318       Br329   1.930       .  S
C319        C320   1.406       .  A
C319        C324   1.406       .  A
C320        C321   1.411       .  A
C320       Br331   1.933       .  S
C321        C322   1.419       .  A
C321       Br327   1.920       .  S
C322        C323   1.421       .  A
C323        C324   1.413       .  A
C323       Br332   1.928       .  S
C324       Br328   1.930       .  S
C333        C334   1.419       .  A
C333        C338   1.418       .  A
C334        C335   1.411       .  A
C334       Br346   1.934       .  S
C335        C336   1.410       .  A
C335       Br350   1.932       .  S
C336        C339   1.494       .  S
C336        C337   1.412       .  A
C337        C338   1.407       .  A
C337       Br345   1.931       .  S
C338       Br349   1.938       .  S
C339        C340   1.409       .  A
C339        C344   1.407       .  A
C340        C341   1.410       .  A
C340       Br351   1.931       .  S
C341        C342   1.421       .  A
C341       Br347   1.928       .  S
C342        C343   1.418       .  A
C343        C344   1.408       .  A
C343       Br352   1.917       .  S
C344       Br348   1.933       .  S
C353        C354   1.412       .  A
C353        C358   1.410       .  A
C354        C355   1.410       .  A
C354       Br366   1.931       .  S
C355        C356   1.411       .  A
C355       Br370   1.931       .  S
C356        C359   1.495       .  S
C356        C357   1.411       .  A
C357        C358   1.413       .  A
C357       Br365   1.924       .  S
C358       Br369   1.928       .  S
C359        C360   1.408       .  A
C359        C364   1.408       .  A
C360        C361   1.412       .  A
C360       Br371   1.928       .  S
C361        C362   1.416       .  A
C361       Br367   1.920       .  S
C362        C363   1.417       .  A
C363        C364   1.412       .  A
C363       Br372   1.928       .  S
C364       Br368   1.927       .  S
C373        C374   1.423       .  A
C373        C378   1.415       .  A
C374        C375   1.414       .  A
C374       Br386   1.918       .  S
C375        C376   1.405       .  A
C375       Br390   1.928       .  S
C376        C379   1.485       .  S
C376        C377   1.402       .  A
C377        C378   1.402       .  A
C377       Br385   1.931       .  S
C378       Br389   1.922       .  S
C379        C380   1.408       .  A
C379        C384   1.407       .  A
C380        C381   1.406       .  A
C380       Br391   1.932       .  S
C381        C382   1.415       .  A
C381       Br387   1.933       .  S
C382        C383   1.413       .  A
C383        C384   1.407       .  A
C383       Br392   1.933       .  S
C384       Br388   1.922       .  S
C393        C394   1.415       .  A
C393        C398   1.419       .  A
C394        C395   1.407       .  A
C394       Br406   1.916       .  S
C395        C396   1.405       .  A
C395       Br410   1.931       .  S
C396        C399   1.486       .  S
C396        C397   1.405       .  A
C397        C398   1.411       .  A
C397       Br405   1.931       .  S
C398       Br409   1.919       .  S
C399        C400   1.404       .  A
C399        C404   1.407       .  A
C400        C401   1.404       .  A
C400       Br411   1.927       .  S
C401        C402   1.418       .  A
C401       Br407   1.934       .  S
C402        C403   1.423       .  A
C403        C404   1.412       .  A
C403       Br412   1.934       .  S
C404       Br408   1.931       .  S
C413        C414   1.425       .  A
C413        C418   1.423       .  A
C414        C415   1.410       .  A
C414       Br426   1.934       .  S
C415        C416   1.405       .  A
C415       Br430   1.933       .  S
C416        C419   1.488       .  S
C416        C417   1.406       .  A
C417        C418   1.408       .  A
C417       Br425   1.934       .  S
C418       Br429   1.933   1_556  S
C419        C420   1.404       .  A
C419        C424   1.406       .  A
C420        C421   1.410       .  A
C420       Br431   1.932       .  S
C421        C422   1.429       .  A
C421       Br427   1.933       .  S
C422        C423   1.416       .  A
C423        C424   1.407       .  A
C423       Br432   1.918       .  S
C424       Br428   1.926       .  S
C433        C434   1.412       .  A
C433        C438   1.410       .  A
C434        C435   1.409       .  A
C434       Br446   1.929   1_554  S
C435        C436   1.409       .  A
C435       Br450   1.929       .  S
C436        C439   1.484       .  S
C436        C437   1.408       .  A
C437        C438   1.406       .  A
C437       Br445   1.930       .  S
C438       Br449   1.930       .  S
C439        C440   1.401       .  A
C439        C444   1.402       .  A
C440        C441   1.411       .  A
C440       Br451   1.934       .  S
C441        C442   1.427       .  A
C441       Br447   1.918       .  S
C442        C443   1.425       .  A
C443        C444   1.408       .  A
C443       Br452   1.919       .  S
C444       Br448   1.936       .  S
C453        C454   1.417       .  A
C453        C458   1.415       .  A
C454        C455   1.410       .  A
C454       Br466   1.928       .  S
C455        C456   1.409       .  A
C455       Br470   1.931       .  S
C456        C459   1.490       .  S
C456        C457   1.408       .  A
C457        C458   1.406       .  A
C457       Br465   1.926       .  S
C458       Br469   1.935       .  S
C459        C460   1.403       .  A
C459        C464   1.405       .  A
C460        C461   1.409       .  A
C460       Br471   1.935       .  S
C461        C462   1.426       .  A
C461       Br467   1.919       .  S
C462        C463   1.424       .  A
C463        C464   1.411       .  A
C463       Br472   1.922       .  S
C464       Br468   1.934       .  S
C473        C474   1.421       .  A
C473        C478   1.416       .  A
C474        C475   1.414       .  A
C474       Br486   1.930       .  S
C475        C476   1.407       .  A
C475       Br490   1.928   1_455  S
C476        C479   1.496       .  S
C476        C477   1.407       .  A
C477        C478   1.410       .  A
C477       Br485   1.927       .  S
C478       Br489   1.920       .  S
C479        C480   1.406       .  A
C479        C484   1.406   1_455  A
C480        C481   1.411       .  A
C480       Br491   1.934       .  S
C481        C482   1.426       .  A
C481       Br487   1.936       .  S
C482        C483   1.430   1_455  A
C483        C484   1.417       .  A
C483       Br492   1.935       .  S
C484       Br488   1.931       .  S
C493        C494   1.410       .  A
C493        C498   1.408       .  A
C494        C495   1.408       .  A
C494       Br506   1.930       .  S
C495        C496   1.410       .  A
C495       Br510   1.930       .  S
C496        C499   1.487       .  S
C496        C497   1.410       .  A
C497        C498   1.406       .  A
C497       Br505   1.926       .  S
C498       Br509   1.931       .  S
C499        C500   1.403       .  A
C499        C504   1.402       .  A
C500        C501   1.410       .  A
C500       Br511   1.936       .  S
C501        C502   1.419       .  A
C501       Br507   1.903       .  S
C502        C503   1.418       .  A
C503        C504   1.410       .  A
C503       Br512   1.905       .  S
C504       Br508   1.933       .  S
C513        C514   1.426       .  A
C513        C518   1.437       .  A
C514        C515   1.411       .  A
C514       Br526   1.911       .  S
C515        C516   1.401       .  A
C515       Br530   1.935       .  S
C516        C519   1.499       .  S
C516        C517   1.404       .  A
C517        C518   1.420       .  A
C517       Br525   1.935       .  S
C518       Br529   1.924       .  S
C519        C520   1.411       .  A
C519        C524   1.409       .  A
C520        C521   1.415       .  A
C520       Br531   1.927       .  S
C521        C522   1.414       .  A
C521       Br527   1.929       .  S
C522        C523   1.417       .  A
C523        C524   1.411       .  A
C523       Br532   1.933       .  S
C524       Br528   1.931       .  S
C533        C534   1.429       .  A
C533        C538   1.426       .  A
C534        C535   1.412       .  A
C534       Br546   1.915       .  S
C535        C536   1.400       .  A
C535       Br550   1.935       .  S
C536        C539   1.484       .  S
C536        C537   1.399       .  A
C537        C538   1.407       .  A
C537       Br545   1.936       .  S
C538       Br549   1.914       .  S
C539        C540   1.407       .  A
C539        C544   1.407       .  A
C540        C541   1.406       .  A
C540       Br551   1.930       .  S
C541        C542   1.417       .  A
C541       Br547   1.935       .  S
C542        C543   1.418       .  A
C543        C544   1.409       .  A
C543       Br552   1.933       .  S
C544       Br548   1.931       .  S
C553        C554   1.424       .  A
C553        C558   1.415       .  A
C554        C555   1.409       .  A
C554       Br566   1.912       .  S
C555        C556   1.402       .  A
C555       Br570   1.938       .  S
C556        C559   1.494       .  S
C556        C557   1.408       .  A
C557        C558   1.416       .  A
C557       Br565   1.926       .  S
C558       Br569   1.920       .  S
C559        C560   1.407       .  A
C559        C564   1.409       .  A
C560        C561   1.409       .  A
C560       Br571   1.929       .  S
C561        C562   1.418       .  A
C561       Br567   1.933       .  S
C562        C563   1.421       .  A
C563        C564   1.414       .  A
C563       Br572   1.933   1_545  S
C564       Br568   1.930       .  S
C573        C574   1.438   1_655  A
C573        C578   1.428       .  A
C574        C575   1.415       .  A
C574       Br586   1.928       .  S
C575        C576   1.401   1_455  A
C575       Br590   1.936       .  S
C576        C579   1.493       .  S
C576        C577   1.402       .  A
C577        C578   1.411       .  A
C577       Br585   1.935       .  S
C578       Br589   1.921       .  S
C579        C580   1.406   1_655  A
C579        C584   1.407       .  A
C580        C581   1.408       .  A
C580       Br591   1.929       .  S
C581        C582   1.422   1_455  A
C581       Br587   1.934       .  S
C582        C583   1.421       .  A
C583        C584   1.413       .  A
C583       Br592   1.930       .  S
C584       Br588   1.930       .  S
C593        C594   1.448       .  A
C593        C598   1.434       .  A
C594        C595   1.414       .  A
C594       Br606   1.937       .  S
C595        C596   1.397       .  A
C595       Br610   1.941       .  S
C596        C599   1.492       .  S
C596        C597   1.401       .  A
C597        C598   1.415       .  A
C597       Br605   1.936       .  S
C598       Br609   1.923       .  S
C599        C600   1.410       .  A
C599        C604   1.408       .  A
C600        C601   1.409       .  A
C600       Br611   1.924       .  S
C601        C602   1.411       .  A
C601       Br607   1.931   1_556  S
C602        C603   1.418       .  A
C603        C604   1.409       .  A
C603       Br612   1.934       .  S
C604       Br608   1.932       .  S
C613        C614   1.408       .  A
C613        C618   1.409       .  A
C614        C615   1.405       .  A
C614       Br626   1.930       .  S
C615        C616   1.409       .  A
C615       Br630   1.928       .  S
C616        C619   1.481       .  S
C616        C617   1.409       .  A
C617        C618   1.406       .  A
C617       Br625   1.930       .  S
C618       Br629   1.930       .  S
C619        C620   1.402       .  A
C619        C624   1.402       .  A
C620        C621   1.407       .  A
C620       Br631   1.935       .  S
C621        C622   1.421       .  A
C621       Br627   1.916       .  S
C622        C623   1.421       .  A
C623        C624   1.409       .  A
C623       Br632   1.917       .  S
C624       Br628   1.934       .  S
C633        C634   1.439   1_455  A
C633        C638   1.429       .  A
C634        C635   1.410       .  A
C634       Br646   1.939   1_655  S
C635        C636   1.398       .  A
C635       Br650   1.936       .  S
C636        C639   1.482       .  S
C636        C637   1.398   1_655  A
C637        C638   1.407       .  A
C637       Br645   1.931       .  S
C638       Br649   1.923       .  S
C639        C640   1.405       .  A
C639        C644   1.409   1_655  A
C640        C641   1.408       .  A
C640       Br651   1.930       .  S
C641        C642   1.418       .  A
C641       Br647   1.933       .  S
C642        C643   1.415   1_655  A
C643        C644   1.405       .  A
C643       Br652   1.935       .  S
C644       Br648   1.934       .  S
C653        C654   1.427       .  A
C653        C658   1.425       .  A
C654        C655   1.410       .  A
C654       Br666   1.922       .  S
C655        C656   1.401       .  A
C655       Br670   1.934       .  S
C656        C659   1.480       .  S
C656        C657   1.400       .  A
C657        C658   1.406       .  A
C657       Br665   1.937       .  S
C658       Br669   1.917       .  S
C659        C660   1.410       .  A
C659        C664   1.408       .  A
C660        C661   1.407       .  A
C660       Br671   1.928       .  S
C661        C662   1.407       .  A
C661       Br667   1.928       .  S
C662        C663   1.408       .  A
C663        C664   1.404       .  A
C663       Br672   1.930       .  S
C664       Br668   1.930       .  S
C673        C674   1.415       .  A
C673        C678   1.410       .  A
C674        C675   1.409       .  A
C674       Br686   1.931       .  S
C675        C676   1.408       .  A
C675       Br690   1.929       .  S
C676        C679   1.484       .  S
C676        C677   1.407       .  A
C677        C678   1.404       .  A
C677       Br685   1.925       .  S
C678       Br689   1.931       .  S
C679        C680   1.401       .  A
C679        C684   1.402       .  A
C680        C681   1.409       .  A
C680       Br691   1.934       .  S
C681        C682   1.426       .  A
C681       Br687   1.917       .  S
C682        C683   1.427       .  A
C683        C684   1.410       .  A
C683       Br692   1.920       .  S
C684       Br688   1.936       .  S
C693        C694   1.419       .  A
C693        C698   1.418   1_455  A
C694        C695   1.408       .  A
C694       Br706   1.913       .  S
C695        C696   1.404       .  A
C695       Br710   1.933       .  S
C696        C699   1.493       .  S
C696        C697   1.409   1_455  A
C697        C698   1.412       .  A
C697       Br705   1.930       .  S
C698       Br709   1.924       .  S
C699        C700   1.410   1_455  A
C699        C704   1.410       .  A
C700        C701   1.413       .  A
C700       Br711   1.930       .  S
C701        C702   1.415   1_655  A
C701       Br707   1.929       .  S
C702        C703   1.416       .  A
C703        C704   1.408       .  A
C703       Br712   1.929       .  S
C704       Br708   1.932       .  S
