geometry optimzed in LAMMPS
_audit_creation_date              2020-11-30 
_audit_creation_method            'lammps2cif' 
_symmetry_space_group_name_H-M    'P1' 
_symmetry_Int_Tables_number       1 
_symmetry_cell_setting            triclinic 
loop_ 
_symmetry_equiv_pos_as_xyz 
  x,y,z 
_cell_length_a                    43.19955038 
_cell_length_b                    43.20148238973427 
_cell_length_c                    64.58460393478116 
_cell_angle_alpha                 90.37676376805351 
_cell_angle_beta                  89.59080158039119 
_cell_angle_gamma                 120.03732912403264 
loop_ 
_atom_site_label 
_atom_site_type_symbol 
_atom_site_fract_x 
_atom_site_fract_y 
_atom_site_fract_z 
_atom_site_charge 
C1          C  0.06930016  0.42257086  0.90314777     0.86300
C2          C  0.10281265  0.44752606  0.91620647    -0.53900
C3          C  0.12226784  0.43226116  0.92336791     0.09300
C4          C  0.10559075  0.39257656  0.91554448     0.20200
C5          C  0.08457881  0.41122037  0.88578449    -0.54600
C6          C  0.10307631  0.39539244  0.89140125     0.09400
C7          C  0.04765355  0.38875015  0.91609499    -0.54200
C8          C  0.06587626  0.37251597  0.92318147     0.09900
H9          H  0.11208408  0.47566921  0.91813483     0.14400
H10         H  0.12046263  0.37937932  0.92080467     0.00200
H11         H  0.08057464  0.41503050  0.86954144     0.14800
H12         H  0.01919695  0.37757003  0.91848219     0.14500
C13         C  0.33305776  0.42934652  0.90011459     0.86300
C14         C  0.32474248  0.39571993  0.91294541    -0.53900
C15         C  0.29067544  0.37694759  0.92136922     0.09300
C16         C  0.26777708  0.39422025  0.91453618     0.20200
C17         C  0.30533515  0.41389623  0.88356816    -0.54600
C18         C  0.27140804  0.39600455  0.89013974     0.09400
C19         C  0.32233553  0.45178871  0.91363986    -0.54200
C20         C  0.28850909  0.43421287  0.92190452     0.09900
H21         H  0.34252272  0.38498079  0.91295942     0.14400
H22         H  0.24009895  0.38001220  0.92066294     0.00200
H23         H  0.31213017  0.41698986  0.86711361     0.14800
H24         H  0.33981912  0.48042237  0.91508249     0.14500
C25         C  0.07663325  0.16326472  0.90152205     0.86300
C26         C  0.05059088  0.17211977  0.91327423    -0.53900
C27         C  0.06527507  0.20659435  0.92081802     0.09300
C28         C  0.10539474  0.22961893  0.91407747     0.20200
C29         C  0.08975474  0.18976807  0.88418376    -0.54600
C30         C  0.10467544  0.22417178  0.88990711     0.09400
C31         C  0.10924580  0.17556153  0.91558280    -0.54200
C32         C  0.12509534  0.21025223  0.92263114     0.09900
H33         H  0.02214407  0.15395848  0.91364131     0.14400
H34         H  0.11755270  0.25758238  0.91954822     0.00200
H35         H  0.08697488  0.18176253  0.86794081     0.14800
H36         H  0.12019456  0.15830282  0.91853905     0.14500
O37         O  0.15587121  0.38637731  0.75425059    -0.82000
C38         C  0.13234276  0.27737497  0.80763332     0.97400
O39         O  0.10816455  0.27420091  0.79530282    -0.71100
O40         O  0.10590779  0.33069919  0.80312798    -0.74700
Al41       Al  0.10983034  0.31160013  0.77807855     1.49000
C42         C  0.12129981  0.36279711  0.80872012     0.92700
O43         O  0.20105392  0.38923997  0.80310907    -0.80900
O44         O  0.20574798  0.34021436  0.75313140    -0.74400
Al45       Al  0.17771632  0.38589076  0.77863217     1.90100
O46         O  0.22119031  0.35311813  0.79560613    -0.73500
O47         O  0.15264905  0.27867152  0.76030042    -0.73400
O48         O  0.16450729  0.29441592  0.80226674    -0.79000
O49         O  0.11031184  0.29034655  0.75283529    -0.77200
O50         O  0.15719989  0.33853629  0.77816839    -1.13400
O51         O  0.10165394  0.34345439  0.76117913    -0.72600
C52         C  0.12366004  0.36785403  0.74926798     0.98200
C53         C  0.21812916  0.37414815  0.80816405     0.94600
Al54       Al  0.18408744  0.31805316  0.77779521     1.55600
O55         O  0.14236613  0.38717214  0.79645335    -0.77200
C56         C  0.12912031  0.27679497  0.74793644     0.98700
C57         C  0.21899455  0.37245491  0.74842295     0.93600
O58         O  0.21718248  0.39420768  0.76095822    -0.82500
N59         N  0.28970855  0.00507240  0.95903203    -0.36800
N60         N  0.21803512  0.45854142  0.94128110    -0.57300
N61         N  0.19230657  0.00542299  0.95931281    -0.36800
N62         N  0.26488164  0.05185147  0.97764602    -0.57300
C63         C  0.29675318  0.48164143  0.94907791     0.26800
C64         C  0.32038019  0.02890440  0.96898497     0.26800
C65         C  0.16223932  0.48084757  0.95010138     0.26800
C66         C  0.18597304  0.02934256  0.96976603     0.26800
C67         C  0.23746387  0.44630549  0.93079569     0.35400
C68         C  0.18664405  0.44665251  0.93077856     0.35400
C69         C  0.29709882  0.06491187  0.98751217     0.35400
C70         C  0.24614655  0.06551740  0.98753951     0.35400
C71         C  0.33179624  0.49061629  0.95305708    -0.22000
C72         C  0.34631292  0.01997302  0.96420676    -0.22000
C73         C  0.13544188  0.48801909  0.95565992    -0.22000
C74         C  0.15070991  0.01996914  0.96596749    -0.22000
C75         C  0.21807308  0.42700744  0.91390706    -0.23100
C76         C  0.18706256  0.42753734  0.91375793    -0.23100
C77         C  0.29803310  0.08633215  0.00360451    -0.23100
C78         C  0.26692547  0.08681290  0.00357475    -0.23100
C79         C  0.27321602  0.45372989  0.93497391    -0.18400
C80         C  0.32530262  0.05703733  0.98316903    -0.18400
C81         C  0.21013190  0.05808579  0.98344496    -0.18400
C82         C  0.15790818  0.45338442  0.93553212    -0.18400
H83         H  0.34553648  0.47637636  0.94888599     0.14500
H84         H  0.37448855  0.03431031  0.96770555     0.14500
H85         H  0.10723062  0.47271263  0.95229834     0.14500
H86         H  0.13682303  0.03405310  0.97010446     0.14500
H87         H  0.22543741  0.41493558  0.90196688     0.12700
H88         H  0.16828290  0.41620338  0.90152310     0.12700
H89         H  0.31803737  0.09969783  0.01505497     0.12700
H90         H  0.26084990  0.10065170  0.01506448     0.12700
H91         H  0.26611611  0.00556744  0.95888116     0.26000
H92         H  0.21667013  0.00657435  0.95825103     0.26000
C93         C  0.15285228  0.08846439  0.01713423     0.86300
C94         C  0.16170637  0.06361884  0.00414824    -0.53900
C95         C  0.19572967  0.07945853  0.99573155     0.09300
C96         C  0.21805588  0.11980875  0.00259067     0.20200
C97         C  0.18072663  0.10150020  0.03367310    -0.54600
C98         C  0.21468940  0.11828609  0.02706874     0.09400
C99         C  0.16279865  0.12141373  0.00378606    -0.54200
C100        C  0.19650302  0.13834063  0.99536116     0.09900
H101        H  0.14408314  0.03502715  0.00365177     0.14400
H102        H  0.24566213  0.13336377  0.99634356     0.00200
H103        H  0.17397622  0.09779233  0.05012249     0.14800
H104        H  0.14508881  0.13229759  0.00306355     0.14500
C105        C  0.41228292  0.34542444  0.01501300     0.86300
C106        C  0.38077914  0.33619081  0.00037924    -0.53900
C107        C  0.36290100  0.30165726  0.99296325     0.09300
C108        C  0.38020128  0.27963540  0.00131501     0.20200
C109        C  0.39633489  0.31810819  0.03182719    -0.54600
C110        C  0.38026054  0.28395373  0.02562519     0.09400
C111        C  0.43688764  0.33502545  0.00310858    -0.54200
C112        C  0.42066872  0.30097767  0.99497163     0.09900
H113        H  0.37198833  0.35504647  0.99721555     0.14400
H114        H  0.36660955  0.25177420  0.99546573     0.00200
H115        H  0.39908236  0.32540944  0.04819865     0.14800
H116        H  0.46546005  0.35260356  0.00240267     0.14500
C117        C  0.41388454  0.08482633  0.01491979     0.86300
C118        C  0.43642849  0.11704119  0.00069784    -0.53900
C119        C  0.41968579  0.13495542  0.99361566     0.09300
C120        C  0.38048132  0.11757733  0.00208134     0.20200
C121        C  0.40240064  0.10030967  0.03207424    -0.54600
C122        C  0.38500411  0.11716908  0.02621753     0.09400
C123        C  0.37890748  0.06073253  0.00289437    -0.59000
C124        C  0.36103272  0.07726888  0.99539906     0.09900
H125        H  0.46423661  0.12637279  0.99758614     0.14400
H126        H  0.36649673  0.13147814  0.99653096     0.00200
H127        H  0.40723376  0.09758830  0.04834603     0.14800
H128        H  0.36817431  0.03222667  0.00146358     0.14500
O129        O  0.37722612  0.17226983  0.16352314    -0.82000
C130        C  0.26923430  0.15169726  0.10924731     0.97400
O131        O  0.26621082  0.12728531  0.12129704    -0.71100
O132        O  0.32179511  0.12374639  0.11376322    -0.74700
Al133      Al  0.30288292  0.12795252  0.13860466     1.49000
C134        C  0.35391605  0.13772978  0.10852685     0.92700
O135        O  0.38223674  0.21715138  0.11327531    -0.80900
O136        O  0.33584908  0.22547540  0.16377645    -0.74400
Al137      Al  0.37829337  0.19422728  0.13834043     1.90100
O138        O  0.34713667  0.23867958  0.12086844    -0.73500
O139        O  0.27293429  0.17340276  0.15778960    -0.73400
O140        O  0.28647491  0.18375949  0.11486610    -0.79000
O141        O  0.28159411  0.12847151  0.16341130    -0.77200
O142        O  0.33093106  0.17518565  0.13874827    -1.13400
O143        O  0.33378106  0.11866202  0.15575892    -0.72600
C144        C  0.35741817  0.13996841  0.16831637     0.98200
C145        C  0.36696173  0.23410026  0.10806771     0.94600
Al146      Al  0.31190620  0.20332699  0.13932136     1.55600
O147        O  0.37832815  0.15757259  0.12110151    -0.77200
C148        C  0.26965298  0.14820123  0.16924886     0.98700
C149        C  0.36831752  0.23825831  0.16797955     0.93600
O150        O  0.38888290  0.23521216  0.15515858    -0.82500
N151        N  0.49419488  0.30262015  0.95919550    -0.36800
N152        N  0.44603836  0.23090631  0.97621111    -0.57300
N153        N  0.49164871  0.20446868  0.95695897    -0.36800
N154        N  0.04012127  0.27646011  0.93994749    -0.57300
C155        C  0.47052712  0.30972969  0.96927644     0.26800
C156        C  0.02018868  0.33354242  0.95051952     0.26800
C157        C  0.46632361  0.17384264  0.96625580     0.26800
C158        C  0.01498369  0.19728817  0.94651161     0.26800
C159        C  0.43338988  0.25008219  0.98656761     0.35400
C160        C  0.43333666  0.19904649  0.98627561     0.35400
C161        C  0.05351039  0.30883561  0.93038509     0.35400
C162        C  0.05124398  0.25677132  0.92877004     0.35400
C163        C  0.48108960  0.34531434  0.96580593    -0.22000
C164        C  0.01359848  0.36072481  0.95615000    -0.22000
C165        C  0.47293699  0.14668040  0.96065622    -0.22000
C166        C  0.00477656  0.16185160  0.95024853    -0.22000
C167        C  0.41300638  0.23008364  0.00298128    -0.23100
C168        C  0.41337759  0.19901595  0.00299784    -0.23100
C169        C  0.07309167  0.30917027  0.91340143    -0.23100
C170        C  0.07086871  0.27677649  0.91206725    -0.23100
C171        C  0.44134407  0.28604932  0.98262986    -0.18400
C172        C  0.04705081  0.33751421  0.93571300    -0.18400
C173        C  0.04364766  0.22087642  0.93278746    -0.18400
C174        C  0.43962906  0.17012931  0.98116286    -0.18400
H175        H  0.46722871  0.35966840  0.96933031     0.14500
H176        H  0.02951196  0.38900659  0.95299521     0.14500
H177        H  0.45717925  0.11844146  0.96391559     0.14500
H178        H  0.01848068  0.14743222  0.94656073     0.14500
H179        H  0.39987208  0.23679996  0.01458116     0.12700
H180        H  0.40086671  0.17981012  0.01488129     0.12700
H181        H  0.08712441  0.32981241  0.90243319     0.12700
H182        H  0.08171197  0.26909895  0.89948438     0.12700
H183        H  0.49207275  0.27794680  0.95752544     0.26000
H184        H  0.49341695  0.22904344  0.95823620     0.26000
N185        N  0.19466688  0.20931190  0.95906180    -0.36800
N186        N  0.22069583  0.28156781  0.94044933    -0.57300
N187        N  0.29284735  0.30536569  0.95738043    -0.36800
N188        N  0.26672121  0.23259009  0.97552858    -0.57300
C189        C  0.16376744  0.20440581  0.95045613     0.26800
C190        C  0.18730495  0.17885692  0.96945241     0.26800
C191        C  0.30027201  0.33568940  0.94674929     0.26800
C192        C  0.32374754  0.31006076  0.96599550     0.26800
C193        C  0.18823049  0.26256342  0.93086815     0.35400
C194        C  0.23992034  0.31312433  0.92997343     0.35400
C195        C  0.24727367  0.20135072  0.98623960     0.35400
C196        C  0.29876007  0.25170920  0.98544641     0.35400
C197        C  0.13634769  0.17105163  0.95638399    -0.22000
C198        C  0.15143641  0.15411986  0.96636935    -0.22000
C199        C  0.33623115  0.36027459  0.94974995    -0.22000
C200        C  0.35117545  0.34340565  0.96007420    -0.22000
C201        C  0.18743417  0.28248871  0.91457523    -0.23100
C202        C  0.21924218  0.31320879  0.91388135    -0.23100
C203        C  0.26712701  0.20150710  0.00276965    -0.23100
C204        C  0.29871538  0.23229128  0.00225097    -0.23100
C205        C  0.15982358  0.22697204  0.93559771    -0.18400
C206        C  0.21117360  0.17340722  0.98260710    -0.18400
C207        C  0.32768907  0.28682902  0.98048447    -0.18400
C208        C  0.27630894  0.34118102  0.93357523    -0.18400
H209        H  0.10809754  0.15889317  0.95318631     0.14500
H210        H  0.13675623  0.12610388  0.97022966     0.14500
H211        H  0.35113573  0.38814460  0.94564488     0.14500
H212        H  0.37944308  0.35540588  0.96312949     0.14500
H213        H  0.16737428  0.27599469  0.90320869     0.12700
H214        H  0.22596942  0.33197936  0.90173702     0.12700
H215        H  0.25972659  0.18284111  0.01502821     0.12700
H216        H  0.31803299  0.23923948  0.01402337     0.12700
H217        H  0.21959283  0.23145066  0.95692071     0.26000
H218        H  0.26785402  0.28333852  0.95958386     0.26000
C219        C  0.49134411  0.25500112  0.34900350     0.86300
C220        C  0.00131753  0.23338944  0.33419838    -0.53900
C221        C  0.03600950  0.25105805  0.32672285     0.09300
C222        C  0.05738112  0.29004509  0.33575501     0.20200
C223        C  0.01820971  0.26599142  0.36590164    -0.54600
C224        C  0.05249704  0.28449359  0.35993973     0.09400
C225        C  0.00143767  0.29013234  0.33743936    -0.54200
C226        C  0.03564988  0.30876582  0.32977442     0.09900
H227        H  0.48326202  0.20555525  0.33088099     0.14400
H228        H  0.08536806  0.30508271  0.33013880     0.00200
H229        H  0.01056263  0.26028371  0.38217662     0.14800
H230        H  0.48309200  0.30010382  0.33642441     0.14500
C231        C  0.25035737  0.25207450  0.34627734     0.86300
C232        C  0.27426084  0.28591733  0.33333953    -0.53900
C233        C  0.25808300  0.30456232  0.32655076     0.09300
C234        C  0.21838978  0.28662713  0.33427870     0.20200
C235        C  0.23789050  0.26599209  0.36385742    -0.54600
C236        C  0.22123417  0.28383245  0.35842869     0.09400
C237        C  0.21666790  0.22969041  0.33324738    -0.54200
C238        C  0.19934004  0.24699343  0.32630985     0.09900
H239        H  0.30239349  0.29571983  0.33084992     0.14400
H240        H  0.20475576  0.30104986  0.32903613     0.00200
H241        H  0.24179473  0.26175170  0.38003694     0.14800
H242        H  0.20632298  0.20148375  0.33083603     0.14500
C243        C  0.25292836  0.01448433  0.35089413     0.86300
C244        C  0.22011576  0.50714052  0.33854327    -0.53900
C245        C  0.20146494  0.47343296  0.32995165     0.09300
C246        C  0.21853468  0.45021992  0.33644842     0.20200
C247        C  0.23881498  0.48761780  0.36751826    -0.54600
C248        C  0.22100416  0.45369251  0.36079184     0.09400
C249        C  0.27623914  0.50450672  0.33736948    -0.54200
C250        C  0.25845579  0.47063052  0.32905476     0.09900
H251        H  0.20682005  0.02202187  0.33898938     0.14400
H252        H  0.20357934  0.42260018  0.33027886     0.00200
H253        H  0.24233074  0.49422156  0.38398230     0.14800
H254        H  0.30437868  0.02122950  0.33634102     0.14500
O255        O  0.11487350  0.29081108  0.49684436    -0.82000
C256        C  0.19859986  0.39861203  0.44206338     0.97400
O257        O  0.17834985  0.40228450  0.45493234    -0.71100
O258        O  0.11899876  0.34613811  0.44817880    -0.74700
Al259      Al  0.14329436  0.36545119  0.47271449     1.49000
C260        C  0.10199884  0.31404552  0.44264983     0.92700
O261        O  0.15573715  0.28767824  0.44661398    -0.80900
O262        O  0.21109536  0.33666366  0.49621254    -0.74400
Al263      Al  0.13650459  0.29102920  0.47176219     1.90100
O264        O  0.21212107  0.32313185  0.45368569    -0.73500
O265        O  0.21988876  0.39853047  0.48884380    -0.73400
O266        O  0.21402901  0.38173946  0.44695755    -0.79000
O267        O  0.16618536  0.38702824  0.49744923    -0.77200
O268        O  0.16350239  0.33834348  0.47201109    -1.13400
O269        O  0.10405144  0.33406466  0.49026240    -0.72600
C270        C  0.10160899  0.30969289  0.50211817     0.98200
C271        C  0.18786818  0.30286294  0.44113145     0.94600
Al272      Al  0.21090893  0.35860717  0.47150290     1.55600
O273        O  0.09925832  0.28965725  0.45464148    -0.77200
C274        C  0.19867801  0.40038783  0.50174173     0.98700
C275        C  0.19226753  0.30435815  0.50102921     0.93600
O276        O  0.16830196  0.28265429  0.48873547    -0.82500
C277        C  0.17232000  0.09648916  0.23620842     0.86300
C278        C  0.16327509  0.06465546  0.25071832    -0.53900
C279        C  0.12801877  0.04487620  0.25697091     0.09300
C280        C  0.10510756  0.06044667  0.24772514     0.20200
C281        C  0.14697545  0.07979676  0.21853757    -0.54600
C282        C  0.11219212  0.06175225  0.22365389     0.09400
C283        C  0.15871949  0.11884052  0.24746821    -0.54200
C284        C  0.12426225  0.10082701  0.25482626     0.09900
H285        H  0.18269331  0.05706050  0.25470566     0.14400
H286        H  0.07658151  0.04475249  0.25233354     0.00200
H287        H  0.15600181  0.08337250  0.20245961     0.14800
H288        H  0.17515150  0.14752224  0.24885525     0.14500
C289        C  0.41780333  0.33665734  0.23457617     0.86300
C290        C  0.39163078  0.34558930  0.24642827    -0.53900
C291        C  0.40633210  0.37945893  0.25494073     0.09300
C292        C  0.44668027  0.40236253  0.24846550     0.20200
C293        C  0.43275304  0.36452329  0.21789472    -0.54600
C294        C  0.44574680  0.39866685  0.22408060     0.09400
C295        C  0.44966594  0.34735867  0.24868000    -0.54200
C296        C  0.46530921  0.38133898  0.25657733     0.09900
H297        H  0.36308897  0.32876318  0.24572835     0.14400
H298        H  0.46048083  0.43029058  0.25425300     0.00200
H299        H  0.42961659  0.35708775  0.20156113     0.14800
H300        H  0.46077617  0.32994022  0.25066073     0.14500
C301        C  0.40618167  0.09295798  0.23568594     0.86300
C302        C  0.44010590  0.11846661  0.24818089    -0.53900
C303        C  0.45936458  0.10355041  0.25602557     0.09300
C304        C  0.44227623  0.06347935  0.24935696     0.20200
C305        C  0.42140900  0.08053178  0.21879082    -0.54600
C306        C  0.43954350  0.06463097  0.22515749     0.09400
C307        C  0.38434497  0.05940018  0.24899816    -0.54200
C308        C  0.40252010  0.04349692  0.25685075     0.09900
H309        H  0.45143256  0.14697303  0.24794669     0.14400
H310        H  0.45752429  0.05130422  0.25547829     0.00200
H311        H  0.41762893  0.08357236  0.20240684     0.14800
H312        H  0.35556114  0.04740954  0.25026148     0.14500
O313        O  0.49330722  0.05408685  0.08856554    -0.82000
C314        C  0.46323173  0.44871344  0.14313610     0.97400
O315        O  0.43998476  0.44427889  0.12976740    -0.71100
O316        O  0.44036183  0.00066001  0.13726752    -0.74700
Al317      Al  0.44438649  0.48195040  0.11195804     1.49000
C318        C  0.45889079  0.03235544  0.14322859     0.92700
O319        O  0.03671393  0.05279824  0.13769879    -0.80900
O320        O  0.03644459  0.00087580  0.08720783    -0.74400
Al321      Al  0.01409434  0.05146016  0.11312530     1.90100
O322        O  0.05393487  0.01475080  0.12934424    -0.73500
O323        O  0.48117752  0.44191976  0.09588584    -0.73400
O324        O  0.49542462  0.46167474  0.13780769    -0.79000
O325        O  0.44287741  0.45867677  0.08745386    -0.77200
O326        O  0.49036821  0.00405685  0.11267467    -1.13400
O327        O  0.43787073  0.01347080  0.09516845    -0.72600
C328        C  0.46097836  0.03741474  0.08345345     0.98200
C329        C  0.05310875  0.03667877  0.14213309     0.94600
Al330      Al  0.01561949  0.48201615  0.11206643     1.55600
O331        O  0.48076065  0.05599405  0.13092656    -0.77200
C332        C  0.45846719  0.44146942  0.08342649     0.98700
C333        C  0.05217133  0.03369379  0.08292026     0.93600
O334        O  0.05221503  0.05604850  0.09576119    -0.82500
N335        N  0.03339216  0.17965271  0.28930142    -0.36800
N336        N  0.10552213  0.22531661  0.30746200    -0.57300
N337        N  0.12686791  0.17364653  0.29146927    -0.36800
N338        N  0.05527944  0.12833762  0.27315047    -0.57300
C339        C  0.02839414  0.20532833  0.29858031     0.26800
C340        C  0.00209998  0.15522068  0.28015987     0.26800
C341        C  0.15843810  0.19911199  0.29988731     0.26800
C342        C  0.13252327  0.14866091  0.28180027     0.26800
C343        C  0.08680237  0.23846272  0.31781847     0.35400
C344        C  0.13648858  0.23612085  0.31817620     0.35400
C345        C  0.02387713  0.11685160  0.26277595     0.35400
C346        C  0.07332329  0.11369850  0.26348098     0.35400
C347        C  0.99429915  0.19829403  0.29376439    -0.22000
C348        C  0.47725161  0.16616259  0.28402380    -0.22000
C349        C  0.18437540  0.19055126  0.29468138    -0.22000
C350        C  0.16751931  0.15746807  0.28579515    -0.22000
C351        C  0.10641322  0.25740231  0.33478623    -0.23100
C352        C  0.13679692  0.25577133  0.33504798    -0.23100
C353        C  0.02320373  0.09579959  0.24646520    -0.23100
C354        C  0.05311675  0.09306715  0.24716368    -0.23100
C355        C  0.05154731  0.23214789  0.31329091    -0.18400
C356        C  0.99603774  0.12533860  0.26712732    -0.18400
C357        C  0.10875664  0.12042977  0.26781235    -0.18400
C358        C  0.16403120  0.22763997  0.31385003    -0.18400
H359        H  0.48236274  0.21475082  0.29706879     0.14500
H360        H  0.44890788  0.15222093  0.28108169     0.14500
H361        H  0.21287897  0.20585589  0.29720082     0.14500
H362        H  0.18074918  0.14240037  0.28247325     0.14500
H363        H  0.09986085  0.26999125  0.34681786     0.12700
H364        H  0.15568352  0.26677851  0.34723540     0.12700
H365        H  0.00425406  0.08430165  0.23442532     0.12700
H366        H  0.05915268  0.07839323  0.23603426     0.12700
H367        H  0.05662825  0.17852585  0.28946614     0.26000
H368        H  0.10267340  0.17272775  0.29297746     0.26000
N369        N  0.33057354  0.47249529  0.29236390    -0.36800
N370        N  0.28394956  0.40066791  0.30982624    -0.57300
N371        N  0.33199129  0.37593989  0.29153940    -0.36800
N372        N  0.37772857  0.44761366  0.27371050    -0.57300
C373        C  0.30612629  0.47867527  0.30225256     0.26800
C374        C  0.35504766  0.50332237  0.28286740     0.26800
C375        C  0.30582627  0.34477959  0.29997811     0.26800
C376        C  0.35477723  0.36880628  0.28036577     0.26800
C377        C  0.27030692  0.41915027  0.32000297     0.35400
C378        C  0.27169489  0.36883733  0.31985869     0.35400
C379        C  0.39119012  0.48018264  0.26424696     0.35400
C380        C  0.39163475  0.42925302  0.26364037     0.35400
C381        C  0.31472326  0.51351294  0.29806632    -0.22000
C382        C  0.34650085  0.02902990  0.28804073    -0.22000
C383        C  0.31169715  0.31753025  0.29349250    -0.22000
C384        C  0.34344690  0.33277687  0.28291757    -0.22000
C385        C  0.24932628  0.39846707  0.33610486    -0.23100
C386        C  0.25089870  0.36799771  0.33633507    -0.23100
C387        C  0.41317193  0.48161603  0.24834963    -0.23100
C388        C  0.41296209  0.45034717  0.24785830    -0.23100
C389        C  0.27794436  0.45508136  0.31613972    -0.18400
C390        C  0.38299173  0.50809844  0.26865200    -0.18400
C391        C  0.38414615  0.39317990  0.26716969    -0.18400
C392        C  0.27866265  0.34039350  0.31473523    -0.18400
H393        H  0.29958900  0.02602931  0.30197311     0.14500
H394        H  0.36100525  0.05723380  0.28456436     0.14500
H395        H  0.29545880  0.28916894  0.29629211     0.14500
H396        H  0.35627916  0.31790763  0.27833475     0.14500
H397        H  0.23493798  0.40417979  0.34743884     0.12700
H398        H  0.23845573  0.34848095  0.34813055     0.12700
H399        H  0.42717493  0.50166548  0.23707554     0.12700
H400        H  0.42559419  0.44405737  0.23593094     0.12700
H401        H  0.33046470  0.44862818  0.29191129     0.26000
H402        H  0.33523529  0.40088291  0.29445642     0.26000
N403        N  0.03287999  0.38014986  0.29487013    -0.36800
N404        N  0.05800186  0.45221875  0.27602881    -0.57300
N405        N  0.13107828  0.47617542  0.29339916    -0.36800
N406        N  0.10487427  0.40506222  0.31245405    -0.57300
C407        C  0.00248701  0.37389377  0.28496713     0.26800
C408        C  0.02645137  0.34933986  0.30436085     0.26800
C409        C  0.13591376  0.50712859  0.28479280     0.26800
C410        C  0.16061487  0.48384375  0.30485619     0.26800
C411        C  0.02895506  0.43028547  0.26424341     0.35400
C412        C  0.07983377  0.48072312  0.26385554     0.35400
C413        C  0.08558817  0.37313225  0.32254367     0.35400
C414        C  0.13686031  0.42398120  0.32247414     0.35400
C415        C  0.47594556  0.33918674  0.28935419    -0.22000
C416        C  0.99166920  0.32317534  0.29968521    -0.22000
C417        C  0.16827265  0.03358510  0.29134343    -0.22000
C418        C  0.18490078  0.52012192  0.30239254    -0.22000
C419        C  0.03325016  0.44428125  0.24469013    -0.23100
C420        C  0.06481081  0.47600073  0.24452865    -0.23100
C421        C  0.10529143  0.37270090  0.33901420    -0.23100
C422        C  0.13669499  0.40395252  0.33899319    -0.23100
C423        C  0.99925722  0.39652377  0.26990340    -0.18400
C424        C  0.05008140  0.34458321  0.31801453    -0.18400
C425        C  0.16559294  0.45968291  0.31814487    -0.18400
C426        C  0.11391770  0.51042360  0.26928024    -0.18400
H427        H  0.44813422  0.32558583  0.28493198     0.14500
H428        H  0.47820289  0.29483901  0.30282522     0.14500
H429        H  0.18009860  0.06191843  0.28856763     0.14500
H430        H  0.21245149  0.03362103  0.30641228     0.14500
H431        H  0.01687676  0.43116694  0.23138195     0.12700
H432        H  0.07670544  0.49227365  0.23118843     0.12700
H433        H  0.09802874  0.35287202  0.35062622     0.12700
H434        H  0.15604394  0.41093483  0.35074089     0.12700
H435        H  0.05669560  0.40409465  0.29492902     0.26000
H436        H  0.10999338  0.45091117  0.29016734     0.26000
C437        C  0.31920060  0.42189875  0.68266980     0.86300
C438        C  0.32698025  0.39602340  0.66987474    -0.53900
C439        C  0.36097163  0.41079635  0.66141291     0.09300
C440        C  0.38430483  0.45110480  0.66816733     0.20200
C441        C  0.34687274  0.43404329  0.69924749    -0.54600
C442        C  0.38078403  0.44964092  0.69258342     0.09400
C443        C  0.33041593  0.45497996  0.66921956    -0.54200
C444        C  0.36420235  0.47093137  0.66096201     0.09900
H445        H  0.30926955  0.36748426  0.67039412     0.14400
H446        H  0.41183734  0.46401078  0.66186843     0.00200
H447        H  0.34007884  0.43068830  0.71569654     0.14800
H448        H  0.31336528  0.46658482  0.66814769     0.14500
C449        C  0.08446802  0.17794309  0.68145073     0.86300
C450        C  0.05118706  0.16905617  0.66828761    -0.53900
C451        C  0.03266606  0.13470816  0.66034665     0.09300
C452        C  0.04991709  0.11205683  0.66785554     0.20200
C453        C  0.06899309  0.15078642  0.69835431    -0.54600
C454        C  0.05166082  0.11655330  0.69219356     0.09400
C455        C  0.10714660  0.16694474  0.66838486    -0.54200
C456        C  0.08979951  0.13283288  0.66053433     0.09900
H457        H  0.04098561  0.18720276  0.66705039     0.14400
H458        H  0.03605296  0.08410100  0.66213534     0.00200
H459        H  0.07236117  0.15819457  0.71471003     0.14800
H460        H  0.13569399  0.18463546  0.66680029     0.14500
C461        C  0.07843795  0.41509783  0.68055728     0.86300
C462        C  0.10177682  0.44667857  0.66603301    -0.53900
C463        C  0.08640468  0.46598439  0.65914525     0.09300
C464        C  0.04738541  0.45032020  0.66799467     0.20200
C465        C  0.06869953  0.43201054  0.69779920    -0.54600
C466        C  0.05189137  0.44958189  0.69216717     0.09400
C467        C  0.04309956  0.39218635  0.66894125    -0.54200
C468        C  0.02652332  0.40986750  0.66141291     0.09900
H469        H  0.12912647  0.45475212  0.66257295     0.14400
H470        H  0.03456387  0.46553704  0.66270546     0.00200
H471        H  0.07358652  0.42904499  0.71402462     0.14800
H472        H  0.03139347  0.36349515  0.66757246     0.14500
O473        O  0.04371974  0.00387203  0.83014996    -0.82000
C474        C  0.43742458  0.47899112  0.77397584     0.97400
O475        O  0.43437260  0.45487861  0.78632047    -0.71100
O476        O  0.49160706  0.45366591  0.78087282    -0.74700
Al477      Al  0.47046854  0.45733451  0.80498512     1.49000
C478        C  0.02373175  0.46986208  0.77554096     0.92700
O479        O  0.04993085  0.04945094  0.78030758    -0.80900
O480        O  0.49725935  0.05330610  0.82919710    -0.74400
Al481      Al  0.04493712  0.02591450  0.80521640     1.90100
O482        O  0.51323196  0.06912810  0.78702532    -0.73500
O483        O  0.43594556  0.00026121  0.82058408    -0.73400
O484        O  0.45501730  0.01234041  0.77895002    -0.79000
O485        O  0.44680286  0.45719092  0.82918338    -0.77200
O486        O  0.49746827  0.00512017  0.80461009    -1.13400
O487        O  0.50129377  0.45018134  0.82334983    -0.72600
C488        C  0.02458557  0.47235602  0.83571579     0.98200
C489        C  0.03435442  0.06581317  0.77470304     0.94600
Al490      Al  0.47686040  0.03185403  0.80400666     1.55600
O491        O  0.04767708  0.99092874  0.78765608    -0.77200
C492        C  0.43256802  0.47555845  0.83348938     0.98700
C493        C  0.02916915  0.06651460  0.83471483     0.93600
O494        O  0.05182899  0.06520622  0.82268430    -0.82500
C495        C  0.24983452  0.00074825  0.56727129     0.86300
C496        C  0.22249260  0.00729495  0.57960589    -0.53900
C497        C  0.23577502  0.04099820  0.58811682     0.09300
C498        C  0.27584456  0.06587495  0.58153318     0.20200
C499        C  0.26319586  0.02879716  0.55076393    -0.54600
C500        C  0.27480257  0.06248130  0.55715575     0.09400
C501        C  0.28189801  0.01250599  0.58123516    -0.54200
C502        C  0.29625213  0.04622368  0.58934727     0.09900
H503        H  0.19442115  0.48789242  0.57951149     0.14400
H504        H  0.28776344  0.09376131  0.58728469     0.00200
H505        H  0.26085951  0.02180706  0.53439080     0.14800
H506        H  0.29399709  0.49525263  0.58374658     0.14500
C507        C  0.50342630  0.26298937  0.56885603     0.86300
C508        C  0.49511288  0.22987937  0.58209111    -0.53900
C509        C  0.46043692  0.21023430  0.58942107     0.09300
C510        C  0.43700326  0.22611950  0.58149189     0.20200
C511        C  0.47717682  0.24715155  0.55161882    -0.54600
C512        C  0.44277159  0.22839344  0.55729659     0.09400
C513        C  0.49057086  0.28453879  0.58159177    -0.54200
C514        C  0.45617221  0.26599030  0.58908061     0.09900
H515        H  0.01396546  0.22064958  0.58368303     0.14400
H516        H  0.40878832  0.21054707  0.58668449     0.00200
H517        H  0.48531529  0.25117798  0.53536333     0.14800
H518        H  0.00734910  0.31315852  0.58349187     0.14500
C519        C  0.23618506  0.25330555  0.56883953     0.86300
C520        C  0.26941020  0.27815284  0.58221421    -0.53900
C521        C  0.28909216  0.26296005  0.58917865     0.09300
C522        C  0.27254398  0.22339011  0.58136258     0.20200
C523        C  0.25198356  0.24241659  0.55160203    -0.54600
C524        C  0.27011541  0.22627618  0.55725244     0.09400
C525        C  0.21440578  0.21930555  0.58162607    -0.54200
C526        C  0.23289798  0.20357151  0.58910443     0.09900
H527        H  0.27811080  0.30606290  0.58476902     0.14400
H528        H  0.28725470  0.20996573  0.58654554     0.00200
H529        H  0.24870038  0.24689063  0.53534352     0.14800
H530        H  0.18586203  0.20789860  0.58377829     0.14500
O531        O  0.37643162  0.17288965  0.42174834    -0.82000
C532        C  0.29536590  0.20660422  0.47388277     0.97400
O533        O  0.31971037  0.23052621  0.46270787    -0.71100
O534        O  0.37607943  0.22827205  0.47023941    -0.74700
Al535      Al  0.35331094  0.22545718  0.44522482     1.49000
C536        C  0.39266871  0.21251765  0.47510437     0.92700
O537        O  0.33208160  0.13644779  0.47334310    -0.80900
O538        O  0.28277169  0.12964103  0.42056885    -0.74400
Al539      Al  0.35345214  0.15457254  0.44729695     1.90100
O540        O  0.27690806  0.11735782  0.46370715    -0.73500
O541        O  0.27775496  0.18502569  0.42539100    -0.73400
O542        O  0.27713964  0.17529750  0.46737898    -0.79000
O543        O  0.33288194  0.22731236  0.42002872    -0.77200
O544        O  0.32960232  0.17814806  0.44546341    -1.13400
O545        O  0.39141102  0.22879380  0.42812480    -0.72600
C546        C  0.39264287  0.20546035  0.41663939     0.98200
C547        C  0.29936950  0.12258831  0.47783525     0.94600
Al548      Al  0.28202762  0.15366406  0.44426948     1.55600
O549        O  0.39329236  0.19000381  0.46285635    -0.77200
C550        C  0.30111809  0.20922376  0.41400928     0.98700
C551        C  0.29916590  0.11292037  0.41780459     0.93600
O552        O  0.31967754  0.11314295  0.43176415    -0.82500
N553        N  0.45547689  0.33612348  0.62634348    -0.36800
N554        N  0.38452412  0.28934376  0.60754660    -0.57300
N555        N  0.35912495  0.33707514  0.62492541    -0.36800
N556        N  0.43033637  0.38334363  0.64383980    -0.57300
C557        C  0.46235555  0.31211789  0.61650716     0.26800
C558        C  0.48646439  0.36173783  0.63521163     0.26800
C559        C  0.32825460  0.31063335  0.61627461     0.26800
C560        C  0.35121679  0.35907351  0.63634861     0.26800
C561        C  0.40402725  0.27674838  0.59750309     0.35400
C562        C  0.35354517  0.27762133  0.59670142     0.35400
C563        C  0.46296333  0.39766146  0.65333008     0.35400
C564        C  0.41137864  0.39671822  0.65369028     0.35400
C565        C  0.49743759  0.32159296  0.62069455    -0.22000
C566        C  0.51319246  0.35415267  0.63016821    -0.22000
C567        C  0.30044675  0.31554001  0.62274737    -0.22000
C568        C  0.31496354  0.34688692  0.63372066    -0.22000
C569        C  0.38501603  0.25715420  0.58057771    -0.23100
C570        C  0.35424581  0.25820418  0.57990870    -0.23100
C571        C  0.46422587  0.41980497  0.66903823    -0.23100
C572        C  0.43234624  0.41857223  0.66950769    -0.23100
C573        C  0.43963696  0.28435452  0.60212670    -0.18400
C574        C  0.49115211  0.39002370  0.64909129    -0.18400
C575        C  0.37516158  0.38868435  0.64964309    -0.18400
C576        C  0.32459327  0.28400109  0.60136731    -0.18400
H577        H  0.51139351  0.30731810  0.61713002     0.14500
H578        H  0.04150061  0.36976213  0.63315486     0.14500
H579        H  0.27223479  0.29896062  0.61961834     0.14500
H580        H  0.29948397  0.35906213  0.63826224     0.14500
H581        H  0.39230036  0.24418062  0.56908439     0.12700
H582        H  0.33549575  0.24644014  0.56773158     0.12700
H583        H  0.48487727  0.43466515  0.68000024     0.12700
H584        H  0.42597698  0.43160090  0.68124657     0.12700
H585        H  0.43094433  0.33462734  0.62736607     0.26000
H586        H  0.38446478  0.34134050  0.62183896     0.26000
N587        N  0.20922343  0.10913721  0.60810098    -0.36800
N588        N  0.16024034  0.03642732  0.62354461    -0.57300
N589        N  0.11382033  0.06224399  0.64108713    -0.36800
N590        N  0.16245650  0.13419647  0.62536235    -0.57300
C591        C  0.21864519  0.08858639  0.59639510     0.26800
C592        C  0.22084423  0.14060826  0.59762561     0.26800
C593        C  0.10270305  0.03120405  0.65185040     0.26800
C594        C  0.10286673  0.08233758  0.65205928     0.26800
C595        C  0.18388323  0.02917945  0.61357402     0.35400
C596        C  0.13412080  0.00513869  0.63184199     0.35400
C597        C  0.18806746  0.16559000  0.61704815     0.35400
C598        C  0.13727148  0.14066357  0.63379931     0.35400
C599        C  0.23453873  0.10679718  0.57859281    -0.22000
C600        C  0.23752133  0.13944334  0.57970930    -0.22000
C601        C  0.08569114  0.03271643  0.66958981    -0.22000
C602        C  0.08528763  0.06384254  0.66954795    -0.22000
C603        C  0.17296506  0.99334316  0.61629725    -0.23100
C604        C  0.14047580  0.97790476  0.62605226    -0.23100
C605        C  0.17991751  0.19209567  0.62151198    -0.23100
C606        C  0.14641397  0.17566500  0.62973571    -0.23100
C607        C  0.21273174  0.05341661  0.60035648    -0.18400
C608        C  0.21485723  0.16954969  0.60248857    -0.18400
C609        C  0.10929135  0.11749873  0.64762931    -0.18400
C610        C  0.10740429  0.00147300  0.64658912    -0.18400
H611        H  0.24010310  0.09643784  0.56515121     0.14500
H612        H  0.24914413  0.15900350  0.56784492     0.14500
H613        H  0.07543447  0.01428311  0.68199719     0.14500
H614        H  0.07412738  0.07188954  0.68168581     0.14500
H615        H  0.18634527  0.97884303  0.61202525     0.12700
H616        H  0.12442694  0.44913573  0.62890656     0.12700
H617        H  0.19538122  0.22038514  0.61825921     0.12700
H618        H  0.13132358  0.18898277  0.63277833     0.12700
H619        H  0.19730301  0.10287111  0.62270591     0.26000
H620        H  0.12610325  0.06833771  0.62658454     0.26000
N621        N  0.43644975  0.06617021  0.64182001    -0.36800
N622        N  0.46248060  0.13871587  0.62478411    -0.57300
N623        N  0.39043701  0.11587173  0.60832943    -0.36800
N624        N  0.36471101  0.04371999  0.62581420    -0.57300
C625        C  0.46843617  0.08505924  0.65194704     0.26800
C626        C  0.41670327  0.03419837  0.65190900     0.26800
C627        C  0.41106382  0.14602091  0.59701119     0.26800
C628        C  0.35973743  0.09552060  0.59737546     0.26800
C629        C  0.49339480  0.14456159  0.63399481     0.35400
C630        C  0.46924590  0.17014600  0.61582938     0.35400
C631        C  0.35730066  0.01214247  0.63469977     0.35400
C632        C  0.33362466  0.03863692  0.61736899     0.35400
C633        C  0.46824358  0.06451009  0.66820724    -0.22000
C634        C  0.43680405  0.03332793  0.66806678    -0.22000
C635        C  0.39304713  0.14384387  0.57900052    -0.22000
C636        C  0.36158702  0.11234471  0.57905678    -0.22000
C637        C  0.51989014  0.17935315  0.62981381    -0.23100
C638        C  0.50409057  0.19601616  0.62031102    -0.23100
C639        C  0.32186967  0.98701815  0.63083236    -0.23100
C640        C  0.30643255  0.00443800  0.62195910    -0.23100
C641        C  0.49748728  0.12059729  0.64779042    -0.18400
C642        C  0.38053392  0.00636828  0.64800718    -0.18400
C643        C  0.33021865  0.06156512  0.60270122    -0.18400
C644        C  0.44616675  0.17492564  0.60174533    -0.18400
H645        H  0.48759083  0.07079351  0.67995447     0.14500
H646        H  0.42998730  0.01345645  0.67958753     0.14500
H647        H  0.40186823  0.16195293  0.56639396     0.14500
H648        H  0.34344770  0.10189979  0.56625758     0.14500
H649        H  0.04803212  0.19238732  0.63325894     0.12700
H650        H  0.51769528  0.22430479  0.61712485     0.12700
H651        H  0.30678527  0.45900049  0.63461449     0.12700
H652        H  0.27834834  0.99205441  0.61824359     0.12700
H653        H  0.42923723  0.07394429  0.62833746     0.26000
H654        H  0.39602244  0.11048249  0.62310431     0.26000
C655        C  0.28325300  0.21447087  0.53945170    -0.05600
C656        C  0.31326578  0.24163725  0.52890832    -0.33000
C657        C  0.31651309  0.24100292  0.50735556     0.36200
C658        C  0.29011716  0.21243976  0.49583544    -0.06000
C659        C  0.26073486  0.18489763  0.50631272    -0.32900
C660        C  0.25691945  0.18576026  0.52767274     0.36100
H661        H  0.33198754  0.26591192  0.53691910     0.16500
O662        O  0.34512192  0.26894619  0.49774193    -0.60400
H663        H  0.23964971  0.16273238  0.49781358     0.16500
O664        O  0.22423092  0.16231805  0.53618573    -0.60500
H665        H  0.22148895  0.13822434  0.53448031     0.43500
H666        H  0.33633924  0.28501672  0.49312356     0.43400
C667        C  0.40713612  0.21717751  0.49623433    -0.05600
C668        C  0.41189236  0.19021841  0.50496860    -0.33000
C669        C  0.41781535  0.18997881  0.52622205     0.36200
C670        C  0.41818148  0.21653282  0.53946398    -0.06000
C671        C  0.41370625  0.24355379  0.53039907    -0.32900
C672        C  0.40949500  0.24465707  0.50908665     0.36100
H673        H  0.41046905  0.16886656  0.49538538     0.16500
O674        O  0.42696748  0.16586098  0.53347054    -0.60400
H675        H  0.41875084  0.26693593  0.53929997     0.16500
O676        O  0.40962413  0.27385054  0.50081487    -0.60500
H677        H  0.43522941  0.29225194  0.49935338     0.43500
H678        H  0.45323752  0.17743273  0.53157637     0.43400
C679        C  0.27539756  0.08664360  0.54038565    -0.05600
C680        C  0.30580093  0.11939801  0.53619699    -0.33000
C681        C  0.31141764  0.13339832  0.51611764     0.36200
C682        C  0.28823178  0.11335691  0.49979733    -0.06000
C683        C  0.25460246  0.08496740  0.50497965    -0.32900
C684        C  0.24748286  0.07248974  0.52541102     0.36100
H685        H  0.32570577  0.13351875  0.54795899     0.16500
O686        O  0.33931060  0.16690505  0.51257009    -0.60400
H687        H  0.23458170  0.07132437  0.49314095     0.16500
O688        O  0.21412262  0.04466192  0.53046847    -0.60500
H689        H  0.21006589  0.02424777  0.52149222     0.43500
H690        H  0.33122698  0.18332591  0.51779424     0.43400
C691        C  0.03892798  0.46184369  0.71000075    -0.05600
C692        C  0.06518670  0.49079980  0.72168856    -0.33000
C693        C  0.06192425  0.49283267  0.74323301     0.36200
C694        C  0.03168447  0.46619302  0.75360343    -0.06000
C695        C  0.00526055  0.43783214  0.74199041    -0.32900
C696        C  0.00864267  0.43531616  0.72065791     0.36100
H697        H  0.09045667  0.50970789  0.71463830     0.16500
O698        O  0.08901745  0.52028605  0.75404953    -0.60400
H699        H  0.48236683  0.41640877  0.74966953     0.16500
O700        O  0.98443529  0.40427231  0.71091667    -0.60500
H701        H  0.49331156  0.38731411  0.71310195     0.43500
H702        H  0.10741378  0.51320909  0.75581208     0.43400
C703        C  0.04094090  0.09097400  0.70965949    -0.05600
C704        C  0.06937526  0.09019605  0.71976762    -0.33000
C705        C  0.06855653  0.08409741  0.74113832     0.36200
C706        C  0.03817132  0.07721882  0.75284137    -0.06000
C707        C  0.00934389  0.07692872  0.74287648    -0.32900
C708        C  0.01100196  0.08486261  0.72177469     0.36100
H709        H  0.09460192  0.09956996  0.71172574     0.16500
O710        O  0.09893409  0.08926421  0.75105873    -0.60400
H711        H  0.98595604  0.07213679  0.75169233     0.16500
O712        O  0.98545212  0.09137388  0.71388814    -0.60500
H713        H  0.99339118  0.11660374  0.71750219     0.43500
H714        H  0.11210160  0.08204152  0.74135308     0.43400
C715        C  0.40716939  0.46278893  0.70963588    -0.05600
C716        C  0.41209320  0.43717466  0.72036329    -0.33000
C717        C  0.42032842  0.44101587  0.74152551     0.36200
C718        C  0.42437632  0.47110686  0.75241122    -0.06000
C719        C  0.41999955  0.49681275  0.74173104    -0.32900
C720        C  0.41096800  0.49266822  0.72080561     0.36100
H721        H  0.40556202  0.41204168  0.71300986     0.16500
O722        O  0.42330246  0.41469064  0.75145869    -0.60400
H723        H  0.42415364  0.02146377  0.74905013     0.16500
O724        O  0.40062698  0.01515068  0.71171921    -0.60500
H725        H  0.42163415  0.03960185  0.71183016     0.43500
H726        H  0.39889252  0.39772596  0.75658425     0.43400
C727        C  0.45197197  0.05056199  0.20819704    -0.05600
C728        C  0.48075160  0.07617504  0.19625474    -0.33000
C729        C  0.48281210  0.07142339  0.17497594     0.36200
C730        C  0.45651268  0.04003444  0.16529274    -0.06000
C731        C  0.42920642  0.01336324  0.17745595    -0.32900
C732        C  0.42604871  0.01889182  0.19841746     0.36100
H733        H  0.49920626  0.10210801  0.20279729     0.16500
O734        O  0.50996489  0.09821366  0.16376438    -0.60400
H735        H  0.40869730  0.98877941  0.17046486     0.16500
O736        O  0.39484934  0.99552283  0.20839266    -0.60500
H737        H  0.37805438  0.00438026  0.20568137     0.43500
H738        H  0.00182282  0.11536148  0.16061423     0.43400
C739        C  0.44487118  0.42224358  0.20736885    -0.05600
C740        C  0.41548747  0.40710008  0.19354132    -0.33000
C741        C  0.42039622  0.41576047  0.17248203     0.36200
C742        C  0.45422967  0.44178696  0.16539967    -0.06000
C743        C  0.48037162  0.46284072  0.18014580    -0.32900
C744        C  0.47579489  0.45326869  0.20114696     0.36100
H745        H  0.39018368  0.38459282  0.19843869     0.16500
O746        O  0.39293534  0.39673309  0.15891017    -0.60400
H747        H  0.50492677  0.48600780  0.17525201     0.16500
O748        O  0.50134933  0.47400236  0.21532946    -0.60500
H749        H  0.52414082  0.47734485  0.20965977     0.43500
H750        H  0.39588075  0.37640009  0.15431078     0.43400
C751        C  0.08803617  0.04997127  0.20556268    -0.05600
C752        C  0.08604449  0.02171360  0.19342353    -0.33000
C753        C  0.07622991  0.01759030  0.17251840     0.36200
C754        C  0.06870263  0.04234288  0.16309670    -0.06000
C755        C  0.07194024  0.07120745  0.17491425    -0.32900
C756        C  0.08244089  0.07570699  0.19558980     0.36100
H757        H  0.09458842  0.00405165  0.19969241     0.16500
O758        O  0.07348644  0.98894046  0.16165676    -0.60400
H759        H  0.06767402  0.09142605  0.16786478     0.16500
O760        O  0.09141397  0.10760045  0.20508927    -0.60500
H761        H  0.11640117  0.12436597  0.20073638     0.43500
H762        H  0.09770784  0.99727271  0.15586645     0.43400
C763        C  0.21172517  0.41846466  0.52192055    -0.05600
C764        C  0.24845742  0.43795074  0.52580952    -0.33000
C765        C  0.26144231  0.46007050  0.54321921     0.36200
C766        C  0.23734534  0.46385954  0.55667900    -0.06000
C767        C  0.20073733  0.43876806  0.55495006    -0.32900
C768        C  0.18782350  0.41635520  0.53763428     0.36100
H769        H  0.26737921  0.43795755  0.51470398     0.16500
O770        O  0.29779235  0.48125809  0.54550403    -0.60400
H771        H  0.18143027  0.43786566  0.56596031     0.16500
O772        O  0.15174642  0.39296464  0.53611307    -0.60500
H773        H  0.14131715  0.40748433  0.53122458     0.43500
H774        H  0.30585758  0.49919580  0.53424273     0.43400
C775        C  0.21430742  0.26740003  0.55799129    -0.05600
C776        C  0.23030515  0.30419489  0.55405506    -0.33000
C777        C  0.22311365  0.31665004  0.53579733     0.36200
C778        C  0.19822672  0.29231720  0.52133456    -0.06000
C779        C  0.17813855  0.25625302  0.52677576    -0.32900
C780        C  0.18570048  0.24361502  0.54481599     0.36100
H781        H  0.25134753  0.32358784  0.56379594     0.16500
O782        O  0.24189121  0.35269081  0.53194546    -0.60400
H783        H  0.15779445  0.23720448  0.51641738     0.16500
O784        O  0.16821588  0.20729230  0.54781824    -0.60500
H785        H  0.17909070  0.19789597  0.53782926     0.43500
H786        H  0.26499050  0.35730041  0.52589890     0.43400
C787        C  0.08325284  0.30320548  0.52235284    -0.05600
C788        C  0.06687164  0.32290573  0.52789335    -0.33000
C789        C  0.04561411  0.31440461  0.54562598     0.36200
C790        C  0.03983947  0.28501834  0.55826838    -0.06000
C791        C  0.06088236  0.26916816  0.55423454    -0.32900
C792        C  0.08241025  0.27806235  0.53654168     0.36100
H793        H  0.06869342  0.34372508  0.51782239     0.16500
O794        O  0.02712885  0.33220158  0.54886724    -0.60400
H795        H  0.05875741  0.24759701  0.56356492     0.16500
O796        O  0.10096105  0.26048448  0.53282376    -0.60500
H797        H  0.12428563  0.27515689  0.53980013     0.43500
H798        H  0.00648219  0.32105508  0.53928360     0.43400
C799        C  0.29395776  0.09370718  0.39796491    -0.05600
C800        C  0.27182684  0.09589316  0.38283518    -0.33000
C801        C  0.26286226  0.07518212  0.36483872     0.36200
C802        C  0.27462871  0.05024900  0.36221772    -0.06000
C803        C  0.30213057  0.05341020  0.37542545    -0.32900
C804        C  0.31157399  0.07464701  0.39324327     0.36100
H805        H  0.26048506  0.11307144  0.38514055     0.16500
O806        O  0.24181584  0.07911068  0.35058062    -0.60400
H807        H  0.31303086  0.03579734  0.37342386     0.16500
O808        O  0.33626578  0.07463706  0.40646719    -0.60500
H809        H  0.35947287  0.09535633  0.40217682     0.43500
H810        H  0.25796635  0.09187869  0.33879202     0.43400
C811        C  0.20878424  0.42715729  0.37766379    -0.05600
C812        C  0.17922915  0.42292826  0.38937286    -0.33000
C813        C  0.17643782  0.41564151  0.41058240     0.36200
C814        C  0.20269649  0.41104128  0.42047243    -0.06000
C815        C  0.23150451  0.41398359  0.40876835    -0.32900
C816        C  0.23525569  0.42284695  0.38781803     0.36100
H817        H  0.16057352  0.42995872  0.38282965     0.16500
O818        O  0.14854252  0.41428086  0.42156713    -0.60400
H819        H  0.25250060  0.41135133  0.41617057     0.16500
O820        O  0.26780801  0.43382379  0.37850284    -0.60500
H821        H  0.27160550  0.41302899  0.37899922     0.43500
H822        H  0.15607496  0.43951242  0.42490325     0.43400
C823        C  0.29106796  0.21575377  0.39330412    -0.05600
C824        C  0.25679224  0.19246526  0.38577188    -0.33000
C825        C  0.24456081  0.20021058  0.36770077     0.36200
C826        C  0.26706829  0.23196949  0.35637637    -0.06000
C827        C  0.30329284  0.25173105  0.36228235    -0.32900
C828        C  0.31515456  0.24419021  0.38062687     0.36100
H829        H  0.23831092  0.16912560  0.39460060     0.16500
O830        O  0.20919690  0.17858729  0.36283408    -0.60400
H831        H  0.32210572  0.27569893  0.35423349     0.16500
O832        O  0.34998277  0.26603676  0.38642965    -0.60500
H833        H  0.35064826  0.28725373  0.39288795     0.43500
H834        H  0.19580641  0.18591693  0.37230434     0.43400
C835        C  0.19598518  0.29907096  0.41927122    -0.05600
C836        C  0.22700030  0.32611935  0.40979661    -0.33000
C837        C  0.23350681  0.32433001  0.38864679     0.36200
C838        C  0.20807498  0.29590088  0.37622667    -0.06000
C839        C  0.17669178  0.26943300  0.38581690    -0.32900
C840        C  0.17071378  0.27062519  0.40697620     0.36100
H841        H  0.24676559  0.34829967  0.41889835     0.16500
O842        O  0.26644954  0.34844279  0.38075747    -0.60400
H843        H  0.15863114  0.24521007  0.37751476     0.16500
O844        O  0.14090323  0.24252046  0.41566345    -0.60500
H845        H  0.14921283  0.22682601  0.42157036     0.43500
H846        H  0.28195973  0.33807746  0.38348611     0.43400
C847        C  0.45516146  0.23717163  0.36015643    -0.05600
C848        C  0.44660202  0.26070736  0.37075660    -0.33000
C849        C  0.42705462  0.25115325  0.38918180     0.36200
C850        C  0.41284625  0.21629846  0.39690593    -0.06000
C851        C  0.41788306  0.19142663  0.38549910    -0.32900
C852        C  0.43990312  0.20177533  0.36792915     0.36100
H853        H  0.45941025  0.28868282  0.36679427     0.16500
O854        O  0.42544656  0.27725236  0.40064482    -0.60400
H855        H  0.40709364  0.16435740  0.39112064     0.16500
O856        O  0.44898047  0.17789822  0.35999188    -0.60500
H857        H  0.46830028  0.17978596  0.36907299     0.43500
H858        H  0.41613372  0.28877187  0.39129865     0.43400
C859        C  0.08939484  0.30635242  0.42102581    -0.05600
C860        C  0.08905821  0.27782205  0.41045931    -0.33000
C861        C  0.08296742  0.27335521  0.38908298     0.36200
C862        C  0.07766646  0.29817675  0.37759542    -0.06000
C863        C  0.07845565  0.32697116  0.38842673    -0.32900
C864        C  0.08350478  0.33073911  0.40980621     0.36100
H865        H  0.09274032  0.25840567  0.41891142     0.16500
O866        O  0.07853374  0.24259153  0.38002927    -0.60400
H867        H  0.07022667  0.34396710  0.38085246     0.16500
O868        O  0.08042687  0.35722472  0.41975700    -0.60500
H869        H  0.05622563  0.34509405  0.42610060     0.43500
H870        H  0.05318821  0.22428365  0.38256898     0.43400
C871        C  0.36245280  0.12769222  0.18879290    -0.05600
C872        C  0.38467108  0.15311941  0.20356956    -0.33000
C873        C  0.39491385  0.14273186  0.22163302     0.36200
C874        C  0.38344988  0.10622727  0.22482839    -0.06000
C875        C  0.35538349  0.08094829  0.21217536    -0.32900
C876        C  0.34522371  0.09135122  0.19421349     0.36100
H877        H  0.39532184  0.18139574  0.20080700     0.16500
O878        O  0.41558618  0.16837162  0.23588098    -0.60400
H879        H  0.34476595  0.05258922  0.21453499     0.16500
O880        O  0.32073782  0.06546732  0.18130951    -0.60500
H881        H  0.29746244  0.06327479  0.18517528     0.43500
H882        H  0.43811065  0.18507390  0.22857423     0.43400
C883        C  0.38150236  0.25650429  0.18815867    -0.05600
C884        C  0.35660060  0.25374956  0.20323725    -0.33000
C885        C  0.36757475  0.27512721  0.22109299     0.36200
C886        C  0.40417031  0.30037658  0.22375807    -0.06000
C887        C  0.42905323  0.29688695  0.21098971    -0.32900
C888        C  0.41804456  0.27584540  0.19307497     0.36100
H889        H  0.32825659  0.23583920  0.20089132     0.16500
O890        O  0.34248376  0.27044775  0.23575024    -0.60400
H891        H  0.45748783  0.31456154  0.21319064     0.16500
O892        O  0.44343031  0.27695035  0.17974826    -0.60500
H893        H  0.44697825  0.25695342  0.18406084     0.43500
H894        H  0.32467619  0.27468237  0.22859888     0.43400
C895        C  0.25192512  0.14080351  0.18976824    -0.05600
C896        C  0.24887663  0.11198778  0.20134502    -0.33000
C897        C  0.22769401  0.10012758  0.21913867     0.36200
C898        C  0.20958684  0.11789136  0.22637025    -0.06000
C899        C  0.21766874  0.15024970  0.21629434    -0.32900
C900        C  0.23828640  0.16151352  0.19821057     0.36100
H901        H  0.26091756  0.09665361  0.19586054     0.16500
O902        O  0.22263931  0.06922527  0.22801107    -0.60400
H903        H  0.20441782  0.16492618  0.22052804     0.16500
O904        O  0.24225811  0.19111021  0.18808953    -0.60500
H905        H  0.26154064  0.21183008  0.19558795     0.43500
H906        H  0.20433661  0.04957256  0.21937755     0.43400
C907        C  0.43192881  0.06652990  0.02579471    -0.05600
C908        C  0.40891852  0.03330899  0.03536686    -0.33000
C909        C  0.41794162  0.02326438  0.05390344     0.36200
C910        C  0.45091675  0.04601847  0.06332984    -0.06000
C911        C  0.47574782  0.07685109  0.05274489    -0.32900
C912        C  0.46665064  0.08745049  0.03446661     0.36100
H913        H  0.38186231  0.01644522  0.03007080     0.16500
O914        O  0.39332983  0.99201973  0.06323239    -0.60400
H915        H  0.50198630  0.09421245  0.05924092     0.16500
O916        O  0.49130845  0.11983587  0.02635833    -0.60500
H917        H  0.48924596  0.13798994  0.03481097     0.43500
H918        H  0.39265954  0.97273319  0.05452304     0.43400
C919        C  0.37222878  0.13000641  0.04371736    -0.05600
C920        C  0.34110092  0.10369403  0.05354492    -0.33000
C921        C  0.33593464  0.10495962  0.07475777     0.36200
C922        C  0.36174247  0.13336961  0.08681141    -0.06000
C923        C  0.39252863  0.16025938  0.07713721    -0.32900
C924        C  0.39809160  0.15866492  0.05584967     0.36100
H925        H  0.32277914  0.07939493  0.04539572     0.16500
O926        O  0.30631155  0.07704327  0.08373368    -0.60400
H927        H  0.41272090  0.18225442  0.08615237     0.16500
O928        O  0.43105031  0.18213927  0.04767528    -0.60500
H929        H  0.43263197  0.20584726  0.04797011     0.43500
H930        H  0.31437277  0.06059645  0.08875126     0.43400
C931        C  0.42983710  0.38142488  0.02629752    -0.05600
C932        C  0.46344738  0.39274041  0.03564494    -0.33000
C933        C  0.47292243  0.41149883  0.05438350     0.36200
C934        C  0.44979010  0.42138767  0.06378224    -0.06000
C935        C  0.41813823  0.41352853  0.05368782    -0.32900
C936        C  0.40773585  0.39349876  0.03549921     0.36100
H937        H  0.48110088  0.38360646  0.03008260     0.16500
O938        O  0.50441437  0.41895665  0.06362680    -0.60400
H939        H  0.39972002  0.42062063  0.06074584     0.16500
O940        O  0.37399159  0.38267850  0.02840499    -0.60500
H941        H  0.35773517  0.36169868  0.03697978     0.43500
H942        H  0.99845357  0.39779139  0.07218391     0.43400
C943        C  0.36961267  0.24503580  0.08616286    -0.05600
C944        C  0.34078953  0.24586122  0.07695740    -0.33000
C945        C  0.34096999  0.25280084  0.05579077     0.36200
C946        C  0.37013547  0.25835490  0.04305501    -0.06000
C947        C  0.39860200  0.25660324  0.05242913    -0.32900
C948        C  0.39859007  0.25022393  0.07361361     0.36100
H949        H  0.31844854  0.24228000  0.08637246     0.16500
O950        O  0.31450700  0.25834509  0.04830274    -0.60400
H951        H  0.42323305  0.26488691  0.04395040     0.16500
O952        O  0.42827254  0.25161898  0.08211739    -0.60500
H953        H  0.44331115  0.27665666  0.08694098     0.43500
H954        H  0.32276862  0.28394166  0.05099839     0.43400
C955        C  0.11709707  0.07379880  0.02841241    -0.05600
C956        C  0.09350500  0.03681531  0.03027918    -0.33000
C957        C  0.07046409  0.02317422  0.04735889     0.36200
C958        C  0.07108391  0.04655905  0.06293253    -0.06000
C959        C  0.08987450  0.08332519  0.05916395    -0.32900
C960        C  0.11232299  0.09708218  0.04204334     0.36100
H961        H  0.09422412  0.01797918  0.01952385     0.16500
O962        O  0.04865065  0.98692538  0.04901560    -0.60400
H963        H  0.08902352  0.10193462  0.07016513     0.16500
O964        O  0.13282239  0.13359712  0.04024925    -0.60500
H965        H  0.15079829  0.14153782  0.05147883     0.43500
H966        H  0.02635328  0.98167496  0.04178079     0.43400
C967        C  0.25625832  0.14369424  0.08755020    -0.05600
C968        C  0.25322184  0.11341867  0.07755645    -0.33000
C969        C  0.24511926  0.10727568  0.05640990     0.36200
C970        C  0.24095343  0.13227618  0.04434827    -0.06000
C971        C  0.24472960  0.16296667  0.05451006    -0.32900
C972        C  0.25163942  0.16843564  0.07576787     0.36100
H973        H  0.25621577  0.09381526  0.08630947     0.16500
O974        O  0.23749947  0.07481496  0.04827202    -0.60400
H975        H  0.23771558  0.18062021  0.04660400     0.16500
O976        O  0.25159046  0.19703847  0.08508266    -0.60500
H977        H  0.22707062  0.18743209  0.09073242     0.43500
H978        H  0.21143572  0.05886039  0.05038378     0.43400
C979        C  0.28359596  0.40889927  0.69385373    -0.05600
C980        C  0.25913972  0.37226275  0.69613707    -0.33000
C981        C  0.23598183  0.35997159  0.71317469     0.36200
C982        C  0.23718230  0.38448843  0.72823195    -0.06000
C983        C  0.25677850  0.42096288  0.72398887    -0.32900
C984        C  0.27963303  0.43337331  0.70695442     0.36100
H985        H  0.25948476  0.35261150  0.68589732     0.16500
O986        O  0.21395638  0.32381895  0.71554786    -0.60400
H987        H  0.25668066  0.44025441  0.73475948     0.16500
O988        O  0.30238428  0.46956913  0.70543669    -0.60500
H989        H  0.28767209  0.47924703  0.69977964     0.43500
H990        H  0.19233535  0.31786594  0.70735011     0.43400
C991        C  0.12342000  0.25848469  0.72768756    -0.05600
C992        C  0.14318863  0.24190190  0.72271318    -0.33000
C993        C  0.13463882  0.21974468  0.70538686     0.36200
C994        C  0.10579890  0.21407709  0.69232541    -0.06000
C995        C  0.09061213  0.23589282  0.69539278    -0.32900
C996        C  0.09861714  0.25730090  0.71309968     0.36100
H997        H  0.16372779  0.24389201  0.73307715     0.16500
O998        O  0.15158084  0.20021673  0.70299108    -0.60400
H999        H  0.06986082  0.23412649  0.68544285     0.16500
O1000       O  0.08061525  0.27551519  0.71638786    -0.60500
H1001       H  0.05752574  0.25784602  0.72278325     0.43500
H1002       H  0.14108810  0.18119890  0.71365389     0.43400
C1003       C  0.09399882  0.39438291  0.69122129    -0.05600
C1004       C  0.06915201  0.36364792  0.70244474    -0.33000
C1005       C  0.07800160  0.35452342  0.72135014     0.36200
C1006       C  0.11286316  0.37488904  0.72898748    -0.06000
C1007       C  0.13893106  0.40206538  0.71653987    -0.32900
C1008       C  0.12992033  0.41233155  0.69818448     0.36100
H1009       H  0.04113559  0.34946620  0.69844423     0.16500
O1010       O  0.05153928  0.32801803  0.73313747    -0.60400
H1011       H  0.16649342  0.41722492  0.72158530     0.16500
O1012       O  0.15636301  0.44163564  0.68822449    -0.60500
H1013       H  0.15957491  0.46258668  0.69638819     0.43500
H1014       H  0.04194415  0.30585492  0.72473875     0.43400
C1015       C  0.06279868  0.12659012  0.89134464    -0.05600
C1016       C  0.02609407  0.10481661  0.88725803    -0.33000
C1017       C  0.01448875  0.08352626  0.86943475     0.36200
C1018       C  0.03974154  0.08348458  0.85540151    -0.06000
C1019       C  0.07545108  0.09947536  0.86153730    -0.32900
C1020       C  0.08710825  0.12053590  0.87940328     0.36100
H1021       H  0.00605125  0.10626797  0.89656103     0.16500
O1022       O  0.97854438  0.06491935  0.86525770    -0.60400
H1023       H  0.09502785  0.09771755  0.85178179     0.16500
O1024       O  0.12310239  0.13870957  0.88344879    -0.60500
H1025       H  0.13378110  0.15885864  0.87350317     0.43500
H1026       H  0.96854345  0.04361938  0.87435199     0.43400
C1027       C  0.12466485  0.26447052  0.82925673    -0.05600
C1028       C  0.15204518  0.26426371  0.84074981    -0.33000
C1029       C  0.14787913  0.25603413  0.86180900     0.36200
C1030       C  0.11640561  0.24933984  0.87230882    -0.06000
C1031       C  0.08917661  0.25019073  0.86080437    -0.32900
C1032       C  0.09282896  0.25693807  0.83946472     0.36100
H1033       H  0.17644978  0.26890936  0.83317022     0.16500
O1034       O  0.17189174  0.24859053  0.87108515    -0.60400
H1035       H  0.06329699  0.24151866  0.86786355     0.16500
O1036       O  0.06466469  0.25494302  0.82870028    -0.60500
H1037       H  0.05103571  0.22996031  0.82356968     0.43500
H1038       H  0.19493464  0.27139540  0.87113637     0.43400
C1039       C  0.36860735  0.45103957  0.88867480    -0.05600
C1040       C  0.39185582  0.43745446  0.88606696    -0.33000
C1041       C  0.41374778  0.44615699  0.86853834     0.36200
C1042       C  0.41314300  0.46930092  0.85335657    -0.06000
C1043       C  0.39456543  0.48736552  0.85765483    -0.32900
C1044       C  0.37276900  0.47886965  0.87518133     0.36100
H1045       H  0.39141569  0.41787767  0.89651773     0.16500
O1046       O  0.43419428  0.43029318  0.86598473    -0.60400
H1047       H  0.39522502  0.50675411  0.84683418     0.16500
O1048       O  0.35227705  0.49480537  0.87756208    -0.60500
H1049       H  0.33351218  0.48411636  0.86677580     0.43500
H1050       H  0.45757787  0.44722919  0.87227968     0.43400
C1051       C  0.24535015  0.38306474  0.87289685    -0.05600
C1052       C  0.24136108  0.40968471  0.86289077    -0.33000
C1053       C  0.23496024  0.40823702  0.84159792     0.36200
C1054       C  0.23091261  0.37892081  0.82976485    -0.06000
C1055       C  0.23407202  0.35183379  0.83958268    -0.32900
C1056       C  0.24227218  0.35424986  0.86070922     0.36100
H1057       H  0.24836911  0.43444126  0.87088888     0.16500
O1058       O  0.23662466  0.43735863  0.83195916    -0.60400
H1059       H  0.23144052  0.32928420  0.83071182     0.16500
O1060       O  0.25188537  0.33090628  0.86864791    -0.60500
H1061       H  0.27744921  0.34095532  0.86491560     0.43500
H1062       H  0.22253737  0.44498702  0.84057201     0.43400
C1063       C  0.04710890  0.43660823  0.89266442    -0.05600
C1064       C  0.06234114  0.47342165  0.88894397    -0.33000
C1065       C  0.05410313  0.48565835  0.87094118     0.36200
C1066       C  0.02994493  0.46096475  0.85634535    -0.06000
C1067       C  0.01033864  0.42490551  0.86179850    -0.32900
C1068       C  0.01804833  0.41264269  0.87987186     0.36100
H1069       H  0.08322088  0.49300661  0.89869719     0.16500
O1070       O  0.07093408  0.52179899  0.86749561    -0.60400
H1071       H  0.99028497  0.40557449  0.85141614     0.16500
O1072       O  0.00128521  0.37636275  0.88271739    -0.60500
H1073       H  0.97789179  0.36985396  0.88914213     0.43500
H1074       H  0.09426899  0.52802623  0.86108849     0.43400
C1075       C  0.11726773  0.37081888  0.83051193    -0.05600
C1076       C  0.14371280  0.40240991  0.83969525    -0.33000
C1077       C  0.14285938  0.40859294  0.86094280     0.36200
C1078       C  0.11546710  0.38255202  0.87367091    -0.06000
C1079       C  0.08914758  0.35086577  0.86425060    -0.32900
C1080       C  0.08963717  0.34511042  0.84302535     0.36100
H1081       H  0.16452686  0.42291410  0.83022057     0.16500
O1082       O  0.16640605  0.44188758  0.86863980    -0.60400
H1083       H  0.06519859  0.33253154  0.87268510     0.16500
O1084       O  0.06140663  0.31532518  0.83446052    -0.60500
H1085       H  0.04280438  0.32193267  0.83205561     0.43500
H1086       H  0.15547342  0.45684868  0.86575219     0.43400
C1087       C  0.06827282  0.92197135  0.90275530     0.86300
C1088       C  0.10168349  0.94700131  0.91590849    -0.53900
C1089       C  0.12128069  0.93189309  0.92308751     0.09300
C1090       C  0.10478250  0.89226032  0.91520591     0.20200
C1091       C  0.08376549  0.91084019  0.88541096    -0.54600
C1092       C  0.10232572  0.89508856  0.89105412     0.09400
C1093       C  0.04668664  0.88809049  0.91558952    -0.54200
C1094       C  0.06502442  0.87205232  0.92273998     0.09900
H1095       H  0.11088372  0.97512830  0.91778008     0.14400
H1096       H  0.11976176  0.87919263  0.92049604     0.00200
H1097       H  0.07975006  0.91461650  0.86916468     0.14800
H1098       H  0.01818830  0.87673602  0.91788991     0.14500
C1099       C  0.33276005  0.93003921  0.89947854     0.86300
C1100       C  0.32471530  0.89648995  0.91231148    -0.53900
C1101       C  0.29066410  0.87748755  0.92074869     0.09300
C1102       C  0.26745710  0.89442056  0.91385924     0.20200
C1103       C  0.30503842  0.91432387  0.88291938    -0.54600
C1104       C  0.27111241  0.89618169  0.88947568     0.09400
C1105       C  0.32174525  0.95226548  0.91303012    -0.54200
C1106       C  0.28785988  0.93437637  0.92122638     0.09900
H1107       H  0.34260103  0.88587701  0.91219257     0.14400
H1108       H  0.23975930  0.88007796  0.91995103     0.00200
H1109       H  0.31183226  0.91738464  0.86646658     0.14800
H1110       H  0.33917382  0.98088302  0.91476020     0.14500
C1111       C  0.07700593  0.66367939  0.90131340     0.86300
C1112       C  0.05085415  0.67236228  0.91309006    -0.53900
C1113       C  0.06532140  0.70672634  0.92072706     0.09300
C1114       C  0.10546737  0.72994777  0.91397070     0.20200
C1115       C  0.09002624  0.69023145  0.88399798    -0.54600
C1116       C  0.10481955  0.72462547  0.88976264     0.09400
C1117       C  0.10971091  0.67611120  0.91530075    -0.54200
C1118       C  0.12535386  0.71074289  0.92244065     0.09900
H1119       H  0.02238983  0.65439258  0.91307175     0.14400
H1120       H  0.11758779  0.75787343  0.91950370     0.00200
H1121       H  0.08733747  0.68227377  0.86775195     0.14800
H1122       H  0.12090374  0.65902077  0.91810699     0.14500
O1123       O  0.15447172  0.88571576  0.75397977    -0.82000
C1124       C  0.13226308  0.77727182  0.80735316     0.97400
O1125       O  0.10790908  0.77370909  0.79503597    -0.71100
O1126       O  0.10498263  0.82986591  0.80288206    -0.74700
Al1127     Al  0.10900114  0.81082441  0.77780060     1.49000
C1128       C  0.12018387  0.86198371  0.80842704     0.92700
O1129       O  0.19996335  0.88890900  0.80266259    -0.80900
O1130       O  0.20482514  0.84024077  0.75243544    -0.74400
Al1131     Al  0.17650684  0.88542504  0.77824331     1.90100
O1132       O  0.22076035  0.85344854  0.79489375    -0.73500
O1133       O  0.15215976  0.77833162  0.75998403    -0.73400
O1134       O  0.16440072  0.79448383  0.80189865    -0.79000
O1135       O  0.10951467  0.78955710  0.75254680    -0.77200
O1136       O  0.15633136  0.83810944  0.77776447    -1.13400
O1137       O  0.10040804  0.84241073  0.76091009    -0.72600
C1138       C  0.12228172  0.86698883  0.74903382     0.98200
C1139       C  0.21737351  0.87411276  0.80758483     0.94600
Al1140     Al  0.18357446  0.81803283  0.77727495     1.55600
O1141       O  0.14105912  0.88638200  0.79611595    -0.77200
C1142       C  0.12851526  0.77622043  0.74763800     0.98700
C1143       C  0.21801727  0.87254999  0.74782476     0.93600
O1144       O  0.21605039  0.89411198  0.76045637    -0.82500
N1145       N  0.29035090  0.50560663  0.95934061    -0.36800
N1146       N  0.21719074  0.95827262  0.94087859    -0.57300
N1147       N  0.19316309  0.50606020  0.95934261    -0.36800
N1148       N  0.26541469  0.55258651  0.97765910    -0.57300
C1149       C  0.29565580  0.98066576  0.94894726     0.26800
C1150       C  0.32120192  0.53024786  0.96880162     0.26800
C1151       C  0.16141969  0.98063016  0.94983118     0.26800
C1152       C  0.18648134  0.52958613  0.96999308     0.26800
C1153       C  0.23669644  0.94627619  0.93024607     0.35400
C1154       C  0.18577743  0.94646295  0.93040409     0.35400
C1155       C  0.29764056  0.56579276  0.98749813     0.35400
C1156       C  0.24669597  0.56627350  0.98752903     0.35400
C1157       C  0.33019409  0.98853331  0.95338462    -0.22000
C1158       C  0.34765058  0.52231079  0.96361220    -0.22000
C1159       C  0.13492173  0.98839566  0.95515062    -0.22000
C1160       C  0.15096181  0.51956956  0.96647635    -0.22000
C1161       C  0.21735599  0.92716673  0.91330847    -0.23100
C1162       C  0.18628975  0.92762717  0.91326015    -0.23100
C1163       C  0.29860422  0.58736201  0.00350918    -0.23100
C1164       C  0.26748572  0.58774735  0.00349477    -0.23100
C1165       C  0.27235208  0.95347535  0.93446897    -0.18400
C1166       C  0.32588234  0.55805360  0.98311277    -0.18400
C1167       C  0.21064505  0.55862790  0.98351394    -0.18400
C1168       C  0.15697164  0.95308436  0.93525967    -0.18400
H1169       H  0.34347675  0.97387926  0.94910212     0.14500
H1170       H  0.37589169  0.53729381  0.96693399     0.14500
H1171       H  0.10673354  0.97344652  0.95170418     0.14500
H1172       H  0.13671203  0.53324496  0.97068577     0.14500
H1173       H  0.22472142  0.91505191  0.90137949     0.12700
H1174       H  0.16747298  0.91634703  0.90105166     0.12700
H1175       H  0.31863843  0.60098926  0.01488104     0.12700
H1176       H  0.26142224  0.60164226  0.01496068     0.12700
H1177       H  0.26610559  0.50476517  0.96012135     0.26000
H1178       H  0.21783195  0.50799599  0.95771696     0.26000
C1179       C  0.15327039  0.58950993  0.01666610     0.86300
C1180       C  0.16232832  0.56442305  0.00410939    -0.53900
C1181       C  0.19631924  0.58014154  0.99571057     0.09300
C1182       C  0.21861080  0.62061115  0.00238945     0.20200
C1183       C  0.18092775  0.60295475  0.03335146    -0.54600
C1184       C  0.21498591  0.61945684  0.02686866     0.09400
C1185       C  0.16332014  0.62214307  0.00306838    -0.54200
C1186       C  0.19711838  0.63899352  0.99480721     0.09900
H1187       H  0.14492991  0.53578553  0.00398243     0.14400
H1188       H  0.24628910  0.63418712  0.99624994     0.00200
H1189       H  0.17395836  0.59952787  0.04977136     0.14800
H1190       H  0.14558736  0.63296375  0.00210338     0.14500
C1191       C  0.41257517  0.84663833  0.01457423     0.86300
C1192       C  0.38104796  0.83731540  0.99990968    -0.53900
C1193       C  0.36299623  0.80261531  0.99272420     0.09300
C1194       C  0.38009790  0.78055041  0.00133163     0.20200
C1195       C  0.39636746  0.81965337  0.03155073    -0.54600
C1196       C  0.38023394  0.78537947  0.02561230     0.09400
C1197       C  0.43693398  0.83578960  0.00278699    -0.54200
C1198       C  0.42050359  0.80161360  0.99484982     0.09900
H1199       H  0.37239048  0.85614885  0.99644697     0.14400
H1200       H  0.36637382  0.75254064  0.99572154     0.00200
H1201       H  0.39910552  0.82727999  0.04787111     0.14800
H1202       H  0.46552431  0.85336528  0.00194247     0.14500
C1203       C  0.41457085  0.58609712  0.01472583     0.86300
C1204       C  0.43684759  0.61824132  0.00047919    -0.53900
C1205       C  0.41987470  0.63593923  0.99350960     0.09300
C1206       C  0.38078252  0.61847645  0.00198665     0.20200
C1207       C  0.40279010  0.60125884  0.03193196    -0.54600
C1208       C  0.38531790  0.61804433  0.02607371     0.09400
C1209       C  0.37960210  0.56177937  0.00272036    -0.59000
C1210       C  0.36154961  0.57823487  0.99531464     0.09900
H1211       H  0.46463707  0.62748110  0.99716835     0.14400
H1212       H  0.36678736  0.63235587  0.99642249     0.00200
H1213       H  0.40751438  0.59842516  0.04820481     0.14800
H1214       H  0.36908103  0.53334113  0.00107597     0.14500
O1215       O  0.37775702  0.67250969  0.16289868    -0.82000
C1216       C  0.26965038  0.65189167  0.10906071     0.97400
O1217       O  0.26644919  0.62741496  0.12114383    -0.71100
O1218       O  0.32185106  0.62365507  0.11353326    -0.74700
Al1219     Al  0.30320827  0.62795660  0.13836991     1.49000
C1220       C  0.35392078  0.63784968  0.10819165     0.92700
O1221       O  0.38208237  0.71740179  0.11287144    -0.80900
O1222       O  0.33571398  0.72473081  0.16388434    -0.74400
Al1223     Al  0.37846974  0.69439505  0.13787815     1.90100
O1224       O  0.34757890  0.73930722  0.12114361    -0.73500
O1225       O  0.27275866  0.67285810  0.15725699    -0.73400
O1226       O  0.28713350  0.68400132  0.11460951    -0.79000
O1227       O  0.28230187  0.62861487  0.16318330    -0.77200
O1228       O  0.33117665  0.67518549  0.13845374    -1.13400
O1229       O  0.33425947  0.61874533  0.15546888    -0.72600
C1230       C  0.35808577  0.64028677  0.16786006     0.98200
C1231       C  0.36722679  0.73496061  0.10809998     0.94600
Al1232     Al  0.31208613  0.70324059  0.13920139     1.55600
O1233       O  0.37844568  0.65780689  0.12066090    -0.77200
C1234       C  0.27001982  0.64808911  0.16888163     0.98700
C1235       C  0.36829561  0.73769142  0.16789694     0.93600
O1236       O  0.38885312  0.73522823  0.15478711    -0.82500
N1237       N  0.49304459  0.80231263  0.95854100    -0.36800
N1238       N  0.44564829  0.73146067  0.97608852    -0.57300
N1239       N  0.49146063  0.70482157  0.95682060    -0.36800
N1240       N  0.03951758  0.77624584  0.93962097    -0.57300
C1241       C  0.46965096  0.80971806  0.96873508     0.26800
C1242       C  0.01918888  0.83319139  0.94991608     0.26800
C1243       C  0.46562255  0.67423856  0.96585923     0.26800
C1244       C  0.01421972  0.69717473  0.94606549     0.26800
C1245       C  0.43313106  0.75067179  0.98651867     0.35400
C1246       C  0.43328660  0.69980692  0.98626382     0.35400
C1247       C  0.05292956  0.80860158  0.93006038     0.35400
C1248       C  0.05108573  0.75675871  0.92862595     0.35400
C1249       C  0.48036237  0.84530591  0.96523716    -0.22000
C1250       C  0.01279007  0.86050561  0.95555632    -0.22000
C1251       C  0.47131725  0.64662772  0.95990532    -0.22000
C1252       C  0.00300715  0.66135702  0.94936338    -0.22000
C1253       C  0.41318645  0.73097386  0.00313060    -0.23100
C1254       C  0.41358171  0.69990154  0.00311001    -0.23100
C1255       C  0.07290386  0.80911259  0.91323545    -0.23100
C1256       C  0.07095105  0.77686225  0.91201822    -0.23100
C1257       C  0.44083097  0.78643148  0.98238521    -0.18400
C1258       C  0.04619876  0.83712302  0.93524769    -0.18400
C1259       C  0.04337680  0.72083050  0.93259142    -0.18400
C1260       C  0.43945625  0.67088753  0.98101379    -0.18400
H1261       H  0.46668739  0.85982157  0.96881612     0.14500
H1262       H  0.02888929  0.88879245  0.95246091     0.14500
H1263       H  0.45514259  0.61842221  0.96319411     0.14500
H1264       H  0.01607998  0.64639443  0.94553654     0.14500
H1265       H  0.40029382  0.73790846  0.01481867     0.12700
H1266       H  0.40106233  0.68066307  0.01495646     0.12700
H1267       H  0.08687884  0.82967766  0.90220961     0.12700
H1268       H  0.08196152  0.76930268  0.89948170     0.12700
H1269       H  0.49059469  0.77752094  0.95660199     0.26000
H1270       H  0.49430021  0.72975669  0.95891069     0.26000
N1271       N  0.19522456  0.70997372  0.95862382    -0.36800
N1272       N  0.22088008  0.78234714  0.94018250    -0.57300
N1273       N  0.29308098  0.80611538  0.95694885    -0.36800
N1274       N  0.26729354  0.73316858  0.97496883    -0.57300
C1275       C  0.16424146  0.70500636  0.95011995     0.26800
C1276       C  0.18805769  0.67935714  0.96875253     0.26800
C1277       C  0.30058709  0.83628847  0.94611280     0.26800
C1278       C  0.32400618  0.81071387  0.96547262     0.26800
C1279       C  0.18835048  0.76327507  0.93068062     0.35400
C1280       C  0.24009805  0.81372583  0.92954301     0.35400
C1281       C  0.24781564  0.70201573  0.98574428     0.35400
C1282       C  0.29897056  0.75264303  0.98517294     0.35400
C1283       C  0.13697941  0.67146196  0.95588809    -0.22000
C1284       C  0.15228861  0.65446511  0.96554022    -0.22000
C1285       C  0.33667313  0.86068890  0.94888619    -0.22000
C1286       C  0.35153421  0.84381988  0.95930835    -0.22000
C1287       C  0.18748052  0.78302679  0.91431307    -0.23100
C1288       C  0.21939385  0.81358737  0.91340353    -0.23100
C1289       C  0.26729097  0.70253001  0.00257026    -0.23100
C1290       C  0.29866237  0.73358069  0.00222787    -0.23100
C1291       C  0.16008729  0.72760778  0.93539673    -0.18400
C1292       C  0.21187154  0.67395256  0.98196610    -0.18400
C1293       C  0.32788026  0.78770141  0.98015789    -0.18400
C1294       C  0.27652224  0.84178132  0.93300966    -0.18400
H1295       H  0.10869955  0.65921179  0.95275959     0.14500
H1296       H  0.13781232  0.62635241  0.96919624     0.14500
H1297       H  0.35172019  0.88848422  0.94465583     0.14500
H1298       H  0.37980309  0.85568633  0.96232600     0.14500
H1299       H  0.16736487  0.77640643  0.90297098     0.12700
H1300       H  0.22624606  0.83201079  0.90104537     0.12700
H1301       H  0.25962863  0.68398838  0.01492521     0.12700
H1302       H  0.31766104  0.74102563  0.01424840     0.12700
H1303       H  0.22005999  0.73233373  0.95664400     0.26000
H1304       H  0.26800798  0.78435153  0.95947783     0.26000
C1305       C  0.49042341  0.75436079  0.34884261     0.86300
C1306       C  0.00038641  0.73169763  0.33523771    -0.53900
C1307       C  0.03480914  0.74882132  0.32735109     0.09300
C1308       C  0.05657304  0.78829843  0.33564872     0.20200
C1309       C  0.01751847  0.76626770  0.36596735    -0.54600
C1310       C  0.05183397  0.78402648  0.35992809     0.09400
C1311       C  0.00101741  0.78908410  0.33676854    -0.54200
C1312       C  0.03519690  0.80713064  0.32911471     0.09900
H1313       H  0.48315453  0.70351732  0.33256035     0.14400
H1314       H  0.08450876  0.80281366  0.32992475     0.00200
H1315       H  0.00992828  0.76120673  0.38227430     0.14800
H1316       H  0.48288332  0.79934186  0.33583397     0.14500
C1317       C  0.25004067  0.75137191  0.34583659     0.86300
C1318       C  0.27381440  0.78504011  0.33275716    -0.53900
C1319       C  0.25755481  0.80363615  0.32601218     0.09300
C1320       C  0.21793910  0.78578372  0.33390079     0.20200
C1321       C  0.23788632  0.76556507  0.36344817    -0.54600
C1322       C  0.22112854  0.78330830  0.35806814     0.09400
C1323       C  0.21622435  0.72886247  0.33296743    -0.54200
C1324       C  0.19880444  0.74605644  0.32606259     0.09900
H1325       H  0.30192407  0.79481733  0.33017709     0.14400
H1326       H  0.20424093  0.80014047  0.32864931     0.00200
H1327       H  0.24208462  0.76157728  0.37962105     0.14800
H1328       H  0.20589711  0.70062910  0.33062211     0.14500
C1329       C  0.25399317  0.51550538  0.35095103     0.86300
C1330       C  0.21920201  0.00578395  0.33824484    -0.53900
C1331       C  0.20097519  0.97208031  0.32962454     0.09300
C1332       C  0.21824456  0.94915895  0.33631402     0.20200
C1333       C  0.23770229  0.98654719  0.36739771    -0.54600
C1334       C  0.22033378  0.95263235  0.36064780     0.09400
C1335       C  0.27565849  0.00379110  0.33745723    -0.54200
C1336       C  0.25823757  0.96985847  0.32913069     0.09900
H1337       H  0.20792337  0.52355425  0.33960384     0.14400
H1338       H  0.20358594  0.92154195  0.33012378     0.00200
H1339       H  0.24094232  0.99311827  0.38387163     0.14800
H1340       H  0.30499474  0.52167631  0.33620458     0.14500
O1341       O  0.11545029  0.79104797  0.49679916    -0.82000
C1342       C  0.19934227  0.89908935  0.44208137     0.97400
O1343       O  0.17889261  0.90253606  0.45489743    -0.71100
O1344       O  0.11950357  0.84631964  0.44803821    -0.74700
Al1345     Al  0.14380866  0.86564353  0.47261708     1.49000
C1346       C  0.10240473  0.81421224  0.44253233     0.92700
O1347       O  0.15628630  0.78796665  0.44647940    -0.80900
O1348       O  0.21165623  0.83678142  0.49608318    -0.74400
Al1349     Al  0.13704669  0.79126975  0.47165462     1.90100
O1350       O  0.21270900  0.82349504  0.45344253    -0.73500
O1351       O  0.22040538  0.89864863  0.48885322    -0.73400
O1352       O  0.21477701  0.88222000  0.44695417    -0.79000
O1353       O  0.16665810  0.88725811  0.49731684    -0.77200
O1354       O  0.16406724  0.83858419  0.47191034    -1.13400
O1355       O  0.10455116  0.83423507  0.49020659    -0.72600
C1356       C  0.10218899  0.80993031  0.50209854     0.98200
C1357       C  0.18839190  0.80318619  0.44091910     0.94600
Al1358     Al  0.21149912  0.85885862  0.47141688     1.55600
O1359       O  0.09972328  0.78986811  0.45454737    -0.77200
C1360       C  0.19915036  0.90072858  0.50162081     0.98700
C1361       C  0.19275344  0.80449158  0.50089921     0.93600
O1362       O  0.16882205  0.78283002  0.48858345    -0.82500
C1363       C  0.17292669  0.59671098  0.23565039     0.86300
C1364       C  0.16397867  0.56499393  0.25024895    -0.53900
C1365       C  0.12868291  0.54506683  0.25636551     0.09300
C1366       C  0.10567813  0.56034653  0.24698828     0.20200
C1367       C  0.14773895  0.57990934  0.21790857    -0.54600
C1368       C  0.11292253  0.56170403  0.22294633     0.09400
C1369       C  0.15906922  0.61893457  0.24680684    -0.54200
C1370       C  0.12459782  0.60064225  0.25413096     0.09900
H1371       H  0.18357524  0.55776191  0.25452107     0.14400
H1372       H  0.07714261  0.54449526  0.25154592     0.00200
H1373       H  0.15687600  0.58365184  0.20184822     0.14800
H1374       H  0.17534013  0.64761655  0.24829893     0.14500
C1375       C  0.41816770  0.83624736  0.23426474     0.86300
C1376       C  0.39159634  0.84492452  0.24592565    -0.53900
C1377       C  0.40604140  0.87867527  0.25464464     0.09300
C1378       C  0.44652675  0.90159279  0.24858220     0.20200
C1379       C  0.43358136  0.86446555  0.21777236    -0.54600
C1380       C  0.44623835  0.89845797  0.22420385     0.09400
C1381       C  0.44962485  0.84666323  0.24859202    -0.54200
C1382       C  0.46500146  0.88046065  0.25670080     0.09900
H1383       H  0.36306288  0.82803878  0.24484731     0.14400
H1384       H  0.46034952  0.92934832  0.25462214     0.00200
H1385       H  0.43068823  0.85738194  0.20138677     0.14800
H1386       H  0.46082967  0.82930379  0.25046712     0.14500
C1387       C  0.40685341  0.59363324  0.23543353     0.86300
C1388       C  0.44079747  0.61830404  0.24816806    -0.53900
C1389       C  0.45955852  0.60263183  0.25566080     0.09300
C1390       C  0.44198778  0.56281837  0.24863200     0.20200
C1391       C  0.42164765  0.58111852  0.21835510    -0.54600
C1392       C  0.43944622  0.56474119  0.22448617     0.09400
C1393       C  0.38454152  0.55993799  0.24858375    -0.54200
C1394       C  0.40225160  0.54341252  0.25620662     0.09900
H1395       H  0.45190251  0.64670517  0.24914768     0.14400
H1396       H  0.45681694  0.55000431  0.25448615     0.00200
H1397       H  0.41793882  0.58459471  0.20202113     0.14800
H1398       H  0.35586777  0.54852987  0.25008834     0.14500
O1399       O  0.49501768  0.55585073  0.08792492    -0.82000
C1400       C  0.46168379  0.94685054  0.14349278     0.97400
O1401       O  0.43845434  0.94227379  0.13009948    -0.71100
O1402       O  0.44211836  0.50281096  0.13643987    -0.74700
Al1403     Al  0.44281678  0.98016211  0.11257157     1.49000
C1404       C  0.46065744  0.53446252  0.14244318     0.92700
O1405       O  0.03847222  0.55449866  0.13693998    -0.80900
O1406       O  0.03735369  0.50203484  0.08642285    -0.74400
Al1407     Al  0.01584114  0.55319882  0.11241456     1.90100
O1408       O  0.05555483  0.51642053  0.12844651    -0.73500
O1409       O  0.48003947  0.94065269  0.09627211    -0.73400
O1410       O  0.49387188  0.95979703  0.13820930    -0.79000
O1411       O  0.44160772  0.95730665  0.08792989    -0.77200
O1412       O  0.49188429  0.50572013  0.11203019    -1.13400
O1413       O  0.43953536  0.51503479  0.09434154    -0.72600
C1414       C  0.46273033  0.53913802  0.08275008     0.98200
C1415       C  0.05474063  0.53824014  0.14131461     0.94600
Al1416     Al  0.01430145  0.98049784  0.11265864     1.55600
O1417       O  0.48281590  0.55810213  0.13026696    -0.77200
C1418       C  0.45749166  0.94041344  0.08375712     0.98700
C1419       C  0.05299484  0.53484754  0.08207245     0.93600
O1420       O  0.05365732  0.55732396  0.09504120    -0.82500
N1421       N  0.03230648  0.67697744  0.28993644    -0.36800
N1422       N  0.10423401  0.72307121  0.30789922    -0.57300
N1423       N  0.12642415  0.67236966  0.29133745    -0.36800
N1424       N  0.05496542  0.62660455  0.27307279    -0.57300
C1425       C  0.02626715  0.70134849  0.30005297     0.26800
C1426       C  0.00095091  0.65168335  0.28127051     0.26800
C1427       C  0.15792019  0.69796425  0.29976221     0.26800
C1428       C  0.13237817  0.64771318  0.28148998     0.26800
C1429       C  0.08551409  0.73613977  0.31833270     0.35400
C1430       C  0.13566679  0.73463210  0.31824756     0.35400
C1431       C  0.02362196  0.61517029  0.26267728     0.35400
C1432       C  0.07328274  0.61255202  0.26313348     0.35400
C1433       C  0.99120110  0.69240439  0.29626629    -0.22000
C1434       C  0.47551213  0.66155309  0.28563523    -0.22000
C1435       C  0.18406372  0.68973654  0.29443162    -0.22000
C1436       C  0.16745815  0.65676391  0.28540961    -0.22000
C1437       C  0.10550073  0.75564022  0.33505989    -0.23100
C1438       C  0.13622764  0.75462522  0.33501397    -0.23100
C1439       C  0.02308760  0.59453943  0.24616085    -0.23100
C1440       C  0.05321876  0.59218770  0.24668631    -0.23100
C1441       C  0.04989004  0.72914048  0.31420036    -0.18400
C1442       C  0.99562619  0.62317742  0.26735429    -0.18400
C1443       C  0.10884127  0.61967646  0.26734802    -0.18400
C1444       C  0.16337304  0.72644457  0.31374639    -0.18400
H1445       H  0.47905001  0.70907746  0.29901266     0.14500
H1446       H  0.44708952  0.64667384  0.28287973     0.14500
H1447       H  0.21256617  0.70522243  0.29692146     0.14500
H1448       H  0.18091046  0.64196732  0.28191580     0.14500
H1449       H  0.09890526  0.76810041  0.34717011     0.12700
H1450       H  0.15548929  0.76621625  0.34697695     0.12700
H1451       H  0.00404613  0.58297808  0.23414619     0.12700
H1452       H  0.05947435  0.57795462  0.23536421     0.12700
H1453       H  0.05657403  0.67800521  0.28848758     0.26000
H1454       H  0.10210497  0.67119587  0.29290742     0.26000
N1455       N  0.33112291  0.97222855  0.29295159    -0.36800
N1456       N  0.28355995  0.89990192  0.30953075    -0.57300
N1457       N  0.33136403  0.87497558  0.29100116    -0.36800
N1458       N  0.37734578  0.94690593  0.27355315    -0.57300
C1459       C  0.30626653  0.97813864  0.30254186     0.26800
C1460       C  0.35534011  0.00301613  0.28332847     0.26800
C1461       C  0.30512686  0.84380688  0.29937488     0.26800
C1462       C  0.35402184  0.86781874  0.27971599     0.26800
C1463       C  0.27015182  0.91841962  0.31992264     0.35400
C1464       C  0.27118023  0.86792642  0.31942510     0.35400
C1465       C  0.39184092  0.98013830  0.26474875     0.35400
C1466       C  0.39157756  0.92874644  0.26355653     0.35400
C1467       C  0.31450981  0.01280494  0.29821817    -0.22000
C1468       C  0.34662793  0.52955345  0.28776963    -0.22000
C1469       C  0.31080267  0.81649332  0.29274771    -0.22000
C1470       C  0.34247102  0.83168894  0.28207980    -0.22000
C1471       C  0.24916899  0.89762417  0.33597567    -0.23100
C1472       C  0.25049241  0.86703809  0.33597476    -0.23100
C1473       C  0.41491654  0.98222103  0.24934575    -0.23100
C1474       C  0.41413231  0.95067470  0.24841530    -0.23100
C1475       C  0.27796805  0.95446152  0.31629011    -0.18400
C1476       C  0.38348840  0.00801119  0.26920982    -0.18400
C1477       C  0.38365660  0.89236446  0.26673331    -0.18400
C1478       C  0.27806255  0.83945301  0.31419427    -0.18400
H1479       H  0.30010566  0.52698772  0.30197680     0.14500
H1480       H  0.36136168  0.55777143  0.28433589     0.14500
H1481       H  0.29449178  0.78813008  0.29553188     0.14500
H1482       H  0.35512824  0.81671779  0.27737629     0.14500
H1483       H  0.23503230  0.90338201  0.34746074     0.12700
H1484       H  0.23807602  0.84749331  0.34773844     0.12700
H1485       H  0.43013352  0.00287505  0.23860234     0.12700
H1486       H  0.42761103  0.94508677  0.23667936     0.12700
H1487       H  0.33177676  0.94873905  0.29308212     0.26000
H1488       H  0.33472023  0.89993098  0.29403903     0.26000
N1489       N  0.03265005  0.87892852  0.29459212    -0.36800
N1490       N  0.05751801  0.95145975  0.27631033    -0.57300
N1491       N  0.13063746  0.97496207  0.29314737    -0.36800
N1492       N  0.10468375  0.90344701  0.31185206    -0.57300
C1493       C  0.00219498  0.87285605  0.28487122     0.26800
C1494       C  0.02627826  0.84794266  0.30381006     0.26800
C1495       C  0.13550034  0.00612854  0.28481635     0.26800
C1496       C  0.16035582  0.98231249  0.30432251     0.26800
C1497       C  0.02845364  0.92963190  0.26451362     0.35400
C1498       C  0.07901723  0.98039162  0.26432084     0.35400
C1499       C  0.08547836  0.87140590  0.32184104     0.35400
C1500       C  0.13659659  0.92240241  0.32193332     0.35400
C1501       C  0.47572392  0.83800056  0.28910469    -0.22000
C1502       C  0.99145322  0.82186888  0.29912250    -0.22000
C1503       C  0.16843065  0.53484876  0.29145347    -0.22000
C1504       C  0.18485427  0.01850089  0.30180145    -0.22000
C1505       C  0.03246829  0.94409467  0.24513291    -0.23100
C1506       C  0.06371865  0.97606700  0.24512095    -0.23100
C1507       C  0.10522477  0.87090582  0.33827311    -0.23100
C1508       C  0.13648013  0.90229738  0.33840841    -0.23100
C1509       C  0.99889999  0.89566333  0.27000189    -0.18400
C1510       C  0.04992207  0.84294322  0.31731770    -0.18400
C1511       C  0.16526337  0.95813683  0.31763818    -0.18400
C1512       C  0.11324722  0.00993267  0.26968200    -0.18400
H1513       H  0.44789221  0.82444324  0.28472131     0.14500
H1514       H  0.47817555  0.79343174  0.30206479     0.14500
H1515       H  0.18018502  0.56310198  0.28842183     0.14500
H1516       H  0.21234369  0.53552737  0.30722738     0.14500
H1517       H  0.01620592  0.93106640  0.23179672     0.12700
H1518       H  0.07531302  0.99269159  0.23189829     0.12700
H1519       H  0.09806874  0.85104563  0.34983618     0.12700
H1520       H  0.15567637  0.90931727  0.35028258     0.12700
H1521       H  0.05645063  0.90289338  0.29470944     0.26000
H1522       H  0.10931600  0.94978459  0.29002509     0.26000
C1523       C  0.31926714  0.92234280  0.68240560     0.86300
C1524       C  0.32685632  0.89627022  0.66962260    -0.53900
C1525       C  0.36087129  0.91080955  0.66118924     0.09300
C1526       C  0.38438069  0.95113268  0.66791503     0.20200
C1527       C  0.34694578  0.93442671  0.69898782    -0.54600
C1528       C  0.38084616  0.94985514  0.69231988     0.09400
C1529       C  0.33071756  0.95545027  0.66893182    -0.54200
C1530       C  0.36451888  0.97115976  0.66066910     0.09900
H1531       H  0.30893699  0.86776540  0.67012528     0.14400
H1532       H  0.41191239  0.96383807  0.66163130     0.00200
H1533       H  0.34017652  0.93121483  0.71543891     0.14800
H1534       H  0.31380353  0.96722002  0.66779523     0.14500
C1535       C  0.08426813  0.67752423  0.68121057     0.86300
C1536       C  0.05104837  0.66853693  0.66798660    -0.53900
C1537       C  0.03251509  0.63407904  0.66018323     0.09300
C1538       C  0.04971812  0.61146208  0.66788849     0.20200
C1539       C  0.06868404  0.65055210  0.69822397    -0.54600
C1540       C  0.05132382  0.61624030  0.69221071     0.09400
C1541       C  0.10694199  0.66637742  0.66825216    -0.54200
C1542       C  0.08962792  0.63217836  0.66056170     0.09900
H1543       H  0.04095448  0.68675774  0.66657341     0.14400
H1544       H  0.03589033  0.58341790  0.66230652     0.00200
H1545       H  0.07195928  0.65815733  0.71454781     0.14800
H1546       H  0.13545138  0.68413177  0.66649977     0.14500
C1547       C  0.07800361  0.91514122  0.68036660     0.86300
C1548       C  0.10165715  0.94700205  0.66602674    -0.53900
C1549       C  0.08627064  0.96628647  0.65904033     0.09300
C1550       C  0.04712169  0.95043124  0.66762967     0.20200
C1551       C  0.06804096  0.93196342  0.69753909    -0.54600
C1552       C  0.05129342  0.94953733  0.69180716     0.09400
C1553       C  0.04293511  0.89236744  0.66856759    -0.54200
C1554       C  0.02644044  0.91002047  0.66095296     0.09900
H1555       H  0.12914613  0.95537499  0.66277574     0.14400
H1556       H  0.03433181  0.96562486  0.66224951     0.00200
H1557       H  0.07281646  0.92902533  0.71379076     0.14800
H1558       H  0.03119566  0.86365179  0.66731725     0.14500
O1559       O  0.04352723  0.50447525  0.83056972    -0.82000
C1560       C  0.43826289  0.98013793  0.77355820     0.97400
O1561       O  0.43479691  0.95593530  0.78595649    -0.71100
O1562       O  0.49165872  0.95387693  0.78049618    -0.74700
Al1563     Al  0.47058370  0.95773338  0.80458819     1.49000
C1564       C  0.02382109  0.96991720  0.77512512     0.92700
O1565       O  0.04865530  0.54887796  0.78042631    -0.80900
O1566       O  0.49626616  0.55284900  0.82952729    -0.74400
Al1567     Al  0.04425602  0.52593505  0.80544892     1.90100
O1568       O  0.51172337  0.56835851  0.78712793    -0.73500
O1569       O  0.43516631  0.49926361  0.82103495    -0.73400
O1570       O  0.45377843  0.51117957  0.77940571    -0.79000
O1571       O  0.44697052  0.95781427  0.82883394    -0.77200
O1572       O  0.49681091  0.50474912  0.80492989    -1.13400
O1573       O  0.50088010  0.94981176  0.82287056    -0.72600
C1574       C  0.02427185  0.97181976  0.83526924     0.98200
C1575       C  0.03290827  0.56507180  0.77481522     0.94600
Al1576     Al  0.47574027  0.53104665  0.80434531     1.55600
O1577       O  0.04742824  0.49092880  0.78813135    -0.77200
C1578       C  0.43297689  0.97644252  0.83307735     0.98700
C1579       C  0.02829462  0.56638943  0.83481057     0.93600
O1580       O  0.05085920  0.56541595  0.82256519    -0.82500
C1581       C  0.25001202  0.49983302  0.56743790     0.86300
C1582       C  0.22272227  0.50669401  0.57961225    -0.53900
C1583       C  0.23596532  0.54053200  0.58789495     0.09300
C1584       C  0.27605359  0.56529822  0.58118825     0.20200
C1585       C  0.26341903  0.52752253  0.55072101    -0.54600
C1586       C  0.27492644  0.56134216  0.55683046     0.09400
C1587       C  0.28213410  0.51192726  0.58140207    -0.54200
C1588       C  0.29652642  0.54586371  0.58921785     0.09900
H1589       H  0.19418872  0.98845282  0.57943800     0.14400
H1590       H  0.28805592  0.59330770  0.58673300     0.00200
H1591       H  0.26136087  0.52019881  0.53441644     0.14800
H1592       H  0.29380104  0.99580463  0.58329887     0.14500
C1593       C  0.50376604  0.76300497  0.56868698     0.86300
C1594       C  0.49543293  0.72976112  0.58180510    -0.53900
C1595       C  0.46074048  0.70990652  0.58903399     0.09300
C1596       C  0.43722596  0.72572359  0.58110153     0.20200
C1597       C  0.47768710  0.74730767  0.55133763    -0.54600
C1598       C  0.44321481  0.72830647  0.55689970     0.09400
C1599       C  0.49065488  0.78429633  0.58146884    -0.54200
C1600       C  0.45620641  0.76556495  0.58887967     0.09900
H1601       H  0.01427777  0.72053571  0.58330277     0.14400
H1602       H  0.40895815  0.70988469  0.58616743     0.00200
H1603       H  0.48599180  0.75168474  0.53511517     0.14800
H1604       H  0.00727126  0.81288014  0.58343147     0.14500
C1605       C  0.23631316  0.75304480  0.56857653     0.86300
C1606       C  0.26965542  0.77791308  0.58184271    -0.53900
C1607       C  0.28923694  0.76269829  0.58886115     0.09300
C1608       C  0.27255762  0.72303648  0.58113256     0.20200
C1609       C  0.25179545  0.74179511  0.55132611    -0.54600
C1610       C  0.26993821  0.72564538  0.55698725     0.09400
C1611       C  0.21451690  0.71915193  0.58143249    -0.54200
C1612       C  0.23288062  0.70328389  0.58892559     0.09900
H1613       H  0.27849055  0.80586288  0.58434005     0.14400
H1614       H  0.28735649  0.70973008  0.58635771     0.00200
H1615       H  0.24837264  0.74613075  0.53506833     0.14800
H1616       H  0.18596949  0.70776478  0.58347744     0.14500
O1617       O  0.37658467  0.67453364  0.42123131    -0.82000
C1618       C  0.29469812  0.70658805  0.47348877     0.97400
O1619       O  0.31871322  0.73075130  0.46227252    -0.71100
O1620       O  0.37544016  0.72922272  0.47008645    -0.74700
Al1621     Al  0.35289813  0.72634696  0.44497021     1.49000
C1622       C  0.39253662  0.71390553  0.47477286     0.92700
O1623       O  0.33335353  0.63782079  0.47300350    -0.80900
O1624       O  0.28369709  0.63029380  0.42011826    -0.74400
Al1625     Al  0.35430823  0.65612532  0.44687373     1.90100
O1626       O  0.27797187  0.61780600  0.46336184    -0.73500
O1627       O  0.27765866  0.68510983  0.42508396    -0.73400
O1628       O  0.27700612  0.67518554  0.46703370    -0.79000
O1629       O  0.33256455  0.72800279  0.41975276    -0.77200
O1630       O  0.32981769  0.67903519  0.44513623    -1.13400
O1631       O  0.39137506  0.73027566  0.42795671    -0.72600
C1632       C  0.39232687  0.70709602  0.41617212     0.98200
C1633       C  0.30056012  0.62320047  0.47747339     0.94600
Al1634     Al  0.28237873  0.65392736  0.44390499     1.55600
O1635       O  0.39399097  0.69217537  0.46223630    -0.77200
C1636       C  0.30085503  0.70955633  0.41373408     0.98700
C1637       C  0.30057678  0.61405092  0.41737628     0.93600
O1638       O  0.32090099  0.61433672  0.43147340    -0.82500
N1639       N  0.45535489  0.83578243  0.62613153    -0.36800
N1640       N  0.38451866  0.78893960  0.60737521    -0.57300
N1641       N  0.35911228  0.83694527  0.62468858    -0.36800
N1642       N  0.43021219  0.88335266  0.64348360    -0.57300
C1643       C  0.46221646  0.81164310  0.61640858     0.26800
C1644       C  0.48633931  0.86151973  0.63494400     0.26800
C1645       C  0.32830475  0.81050315  0.61597564     0.26800
C1646       C  0.35113085  0.85892631  0.63610964     0.26800
C1647       C  0.40395723  0.77621799  0.59737534     0.35400
C1648       C  0.35363761  0.77739027  0.59646022     0.35400
C1649       C  0.46289563  0.89776153  0.65289561     0.35400
C1650       C  0.41119330  0.89655535  0.65345586     0.35400
C1651       C  0.49727531  0.82112780  0.62065836    -0.22000
C1652       C  0.51304105  0.85380809  0.63001171    -0.22000
C1653       C  0.30047046  0.81542311  0.62239639    -0.22000
C1654       C  0.31489816  0.84671300  0.63344416    -0.22000
C1655       C  0.38497098  0.75666497  0.58043185    -0.23100
C1656       C  0.35434377  0.75799522  0.57965030    -0.23100
C1657       C  0.46412719  0.91985407  0.66864384    -0.23100
C1658       C  0.43210539  0.91829304  0.66931150    -0.23100
C1659       C  0.43956114  0.78381956  0.60200464    -0.18400
C1660       C  0.49106805  0.89008201  0.64865279    -0.18400
C1661       C  0.37499096  0.88854446  0.64943556    -0.18400
C1662       C  0.32470385  0.78381385  0.60108791    -0.18400
H1663       H  0.51122226  0.80682272  0.61714091     0.14500
H1664       H  0.04136005  0.86940112  0.63295448     0.14500
H1665       H  0.27228064  0.79885418  0.61920915     0.14500
H1666       H  0.29938924  0.85883450  0.63802086     0.14500
H1667       H  0.39220743  0.74356982  0.56899182     0.12700
H1668       H  0.33569938  0.74649604  0.56737596     0.12700
H1669       H  0.48480783  0.93483555  0.67954576     0.12700
H1670       H  0.42554488  0.93094333  0.68120904     0.12700
H1671       H  0.43087573  0.83442330  0.62706693     0.26000
H1672       H  0.38444264  0.84114482  0.62165154     0.26000
N1673       N  0.20867701  0.60842769  0.60762447    -0.36800
N1674       N  0.16018213  0.53588813  0.62329996    -0.57300
N1675       N  0.11392468  0.56179943  0.64117529    -0.36800
N1676       N  0.16217633  0.63363390  0.62519478    -0.57300
C1677       C  0.21858524  0.58809981  0.59604338     0.26800
C1678       C  0.22063918  0.64012124  0.59733047     0.26800
C1679       C  0.10308731  0.53089201  0.65199520     0.26800
C1680       C  0.10314817  0.58194583  0.65223992     0.26800
C1681       C  0.18391504  0.52871040  0.61334445     0.35400
C1682       C  0.13418206  0.50465513  0.63174921     0.35400
C1683       C  0.18747715  0.66496922  0.61664773     0.35400
C1684       C  0.13681959  0.63989899  0.63360935     0.35400
C1685       C  0.23521302  0.60670150  0.57845190    -0.22000
C1686       C  0.23804858  0.63929139  0.57964690    -0.22000
C1687       C  0.08653597  0.53260556  0.66990268    -0.22000
C1688       C  0.08605263  0.56371488  0.66989086    -0.22000
C1689       C  0.17316900  0.49294754  0.61624488    -0.23100
C1690       C  0.14068101  0.47747415  0.62603046    -0.23100
C1691       C  0.17890731  0.69125103  0.62096238    -0.23100
C1692       C  0.14548386  0.67466805  0.62930867    -0.23100
C1693       C  0.21276426  0.55294812  0.60005469    -0.18400
C1694       C  0.21454805  0.66906021  0.60219455    -0.18400
C1695       C  0.10916355  0.61687425  0.64765403    -0.18400
C1696       C  0.10755131  0.50107060  0.64660296    -0.18400
H1697       H  0.24206829  0.59699203  0.56516956     0.14500
H1698       H  0.25050206  0.65919565  0.56804841     0.14500
H1699       H  0.07659816  0.51426874  0.68235904     0.14500
H1700       H  0.07509612  0.57194765  0.68208191     0.14500
H1701       H  0.18666712  0.47851213  0.61208516     0.12700
H1702       H  0.12411524  0.94956017  0.62887968     0.12700
H1703       H  0.19411412  0.71954220  0.61769739     0.12700
H1704       H  0.13019168  0.68777237  0.63236825     0.12700
H1705       H  0.19634374  0.60193779  0.62210814     0.26000
H1706       H  0.12579764  0.56770841  0.62655810     0.26000
N1707       N  0.43610747  0.56572058  0.64190734    -0.36800
N1708       N  0.46260590  0.63818396  0.62444063    -0.57300
N1709       N  0.39076709  0.61567950  0.60799492    -0.36800
N1710       N  0.36451975  0.54369143  0.62608395    -0.57300
C1711       C  0.46817496  0.58456667  0.65194288     0.26800
C1712       C  0.41623660  0.53396305  0.65218092     0.26800
C1713       C  0.41160501  0.64553569  0.59650141     0.26800
C1714       C  0.36021807  0.59510059  0.59697284     0.26800
C1715       C  0.49347618  0.64379892  0.63360431     0.35400
C1716       C  0.46962275  0.66963769  0.61538800     0.35400
C1717       C  0.35678729  0.51214670  0.63515535     0.35400
C1718       C  0.33353110  0.53888053  0.61765232     0.35400
C1719       C  0.46790872  0.56419856  0.66832791    -0.22000
C1720       C  0.43626288  0.53323107  0.66842022    -0.22000
C1721       C  0.39397446  0.64296261  0.57826745    -0.22000
C1722       C  0.36241976  0.61143754  0.57838667    -0.22000
C1723       C  0.52020057  0.67840697  0.62925188    -0.23100
C1724       C  0.50460990  0.69527954  0.61975353    -0.23100
C1725       C  0.32119251  0.48732564  0.63146282    -0.23100
C1726       C  0.30605104  0.50496504  0.62250617    -0.23100
C1727       C  0.49736599  0.61992920  0.64758812    -0.18400
C1728       C  0.38004166  0.50619171  0.64835115    -0.18400
C1729       C  0.33045329  0.56147259  0.60259541    -0.18400
C1730       C  0.44658304  0.67453389  0.60131366    -0.18400
H1731       H  0.48737168  0.57046581  0.67998807     0.14500
H1732       H  0.42923070  0.51360966  0.68013463     0.14500
H1733       H  0.40318224  0.66094632  0.56556841     0.14500
H1734       H  0.34432410  0.60072541  0.56555795     0.14500
H1735       H  0.04836119  0.69118662  0.63266155     0.12700
H1736       H  0.51844358  0.72356452  0.61656363     0.12700
H1737       H  0.30773420  0.95868064  0.63396875     0.12700
H1738       H  0.27799086  0.49281489  0.61877028     0.12700
H1739       H  0.42895782  0.57336453  0.62835181     0.26000
H1740       H  0.39606276  0.61069352  0.62294260     0.26000
C1741       C  0.28334546  0.71406476  0.53917345    -0.05600
C1742       C  0.31279857  0.74167604  0.52848075    -0.33000
C1743       C  0.31557398  0.74124408  0.50688109     0.36200
C1744       C  0.28947326  0.71228758  0.49546633    -0.06000
C1745       C  0.26081454  0.68419845  0.50608973    -0.32900
C1746       C  0.25741900  0.68485585  0.52749595     0.36100
H1747       H  0.33126442  0.76609192  0.53647322     0.16500
O1748       O  0.34339531  0.76974926  0.49712061    -0.60400
H1749       H  0.24003814  0.66160451  0.49769582     0.16500
O1750       O  0.22543998  0.66019496  0.53621927    -0.60500
H1751       H  0.22414348  0.63672912  0.53445938     0.43500
H1752       H  0.33398208  0.78563509  0.49321771     0.43400
C1753       C  0.40673174  0.71808857  0.49593282    -0.05600
C1754       C  0.41207573  0.69125397  0.50427679    -0.33000
C1755       C  0.41833809  0.69065454  0.52545500     0.36200
C1756       C  0.41869687  0.71684643  0.53900975    -0.06000
C1757       C  0.41375854  0.74384205  0.53031668    -0.32900
C1758       C  0.40867652  0.74503791  0.50911356     0.36100
H1759       H  0.41080317  0.67022309  0.49445110     0.16500
O1760       O  0.42767065  0.66646542  0.53231937    -0.60400
H1761       H  0.41877756  0.76702122  0.53941504     0.16500
O1762       O  0.40754075  0.77385263  0.50128930    -0.60500
H1763       H  0.43247769  0.79105320  0.49708857     0.43500
H1764       H  0.45368014  0.67756111  0.52953732     0.43400
C1765       C  0.27581467  0.58528863  0.53981376    -0.05600
C1766       C  0.30599966  0.61840132  0.53594854    -0.33000
C1767       C  0.31202101  0.63280896  0.51595198     0.36200
C1768       C  0.28934973  0.61302031  0.49936581    -0.06000
C1769       C  0.25595235  0.58395480  0.50419033    -0.32900
C1770       C  0.24847853  0.57087398  0.52448958     0.36100
H1771       H  0.32545215  0.63250350  0.54793848     0.16500
O1772       O  0.33975052  0.66654213  0.51281085    -0.60400
H1773       H  0.23633356  0.57031529  0.49215388     0.16500
O1774       O  0.21525799  0.54239737  0.52909711    -0.60500
H1775       H  0.21195738  0.52244366  0.51993669     0.43500
H1776       H  0.32958891  0.68238691  0.51507449     0.43400
C1777       C  0.03845865  0.96199576  0.70956587    -0.05600
C1778       C  0.06502412  0.99068234  0.72126138    -0.33000
C1779       C  0.06210203  0.99242833  0.74284016     0.36200
C1780       C  0.03161275  0.96611000  0.75318990    -0.06000
C1781       C  0.00479873  0.93811934  0.74155323    -0.32900
C1782       C  0.00806362  0.93561864  0.72022179     0.36100
H1783       H  0.09034268  0.00937324  0.71416234     0.16500
O1784       O  0.08979059  0.01919668  0.75369678    -0.60400
H1785       H  0.48163200  0.91688181  0.74919568     0.16500
O1786       O  0.98365343  0.90464676  0.71049986    -0.60500
H1787       H  0.49244949  0.88764834  0.71245889     0.43500
H1788       H  0.10753038  0.01121052  0.75530034     0.43400
C1789       C  0.04041477  0.59082238  0.70979447    -0.05600
C1790       C  0.06876604  0.59019181  0.72007975    -0.33000
C1791       C  0.06761962  0.58392204  0.74144709     0.36200
C1792       C  0.03694184  0.57666517  0.75297371    -0.06000
C1793       C  0.00819182  0.57627557  0.74284746    -0.32900
C1794       C  0.01022401  0.58450039  0.72176097     0.36100
H1795       H  0.09413993  0.59977672  0.71217409     0.16500
O1796       O  0.09789290  0.58921124  0.75156507    -0.60400
H1797       H  0.98455749  0.57113752  0.75152366     0.16500
O1798       O  0.98464167  0.59084648  0.71375103    -0.60500
H1799       H  0.99279130  0.61625174  0.71699303     0.43500
H1800       H  0.11202197  0.58337416  0.74175285     0.43400
C1801       C  0.40727801  0.96300199  0.70933610    -0.05600
C1802       C  0.41151348  0.93719017  0.72030655    -0.33000
C1803       C  0.41993829  0.94139169  0.74143397     0.36200
C1804       C  0.42514831  0.97218061  0.75200810    -0.06000
C1805       C  0.42151729  0.99812971  0.74107772    -0.32900
C1806       C  0.41196831  0.99347978  0.72021687     0.36100
H1807       H  0.40427525  0.91171430  0.71315904     0.16500
O1808       O  0.42193194  0.91473551  0.75164973    -0.60400
H1809       H  0.42185359  0.51964517  0.74991839     0.16500
O1810       O  0.39923447  0.51412351  0.71246216    -0.60500
H1811       H  0.42009392  0.53867202  0.71260055     0.43500
H1812       H  0.39738998  0.89853172  0.75688555     0.43400
C1813       C  0.45202105  0.55115727  0.20736912    -0.05600
C1814       C  0.48139229  0.57694329  0.19584078    -0.33000
C1815       C  0.48408930  0.57281367  0.17453404     0.36200
C1816       C  0.45777891  0.54191090  0.16445597    -0.06000
C1817       C  0.42977581  0.51518939  0.17620265    -0.32900
C1818       C  0.42601403  0.52012873  0.19713726     0.36100
H1819       H  0.49993117  0.60251562  0.20274897     0.16500
O1820       O  0.51183575  0.59969139  0.16369957    -0.60400
H1821       H  0.40915709  0.49103897  0.16888915     0.16500
O1822       O  0.39417671  0.49700913  0.20661909    -0.60500
H1823       H  0.37786787  0.50630680  0.20351119     0.43500
H1824       H  0.00402273  0.61715253  0.16033544     0.43400
C1825       C  0.44458633  0.92196685  0.20777686    -0.05600
C1826       C  0.41477802  0.90664065  0.19426759    -0.33000
C1827       C  0.41922186  0.91469886  0.17312108     0.36200
C1828       C  0.45288071  0.94057391  0.16576023    -0.06000
C1829       C  0.47931142  0.96204551  0.18023146    -0.32900
C1830       C  0.47536432  0.95283981  0.20123111     0.36100
H1831       H  0.38965019  0.88418156  0.19942306     0.16500
O1832       O  0.39160722  0.89513419  0.15974085    -0.60400
H1833       H  0.50377310  0.98505847  0.17509567     0.16500
O1834       O  0.50171105  0.97350010  0.21500930    -0.60500
H1835       H  0.52376022  0.97512285  0.20927837     0.43500
H1836       H  0.39287626  0.87325936  0.15669322     0.43400
C1837       C  0.08885050  0.55025256  0.20482409    -0.05600
C1838       C  0.08675636  0.52208356  0.19255553    -0.33000
C1839       C  0.07727837  0.51843430  0.17160811     0.36200
C1840       C  0.07005952  0.54348894  0.16231040    -0.06000
C1841       C  0.07323580  0.57217095  0.17428323    -0.32900
C1842       C  0.08343258  0.57622756  0.19499700     0.36100
H1843       H  0.09503044  0.50417049  0.19875734     0.16500
O1844       O  0.07456929  0.48994818  0.16057865    -0.60400
H1845       H  0.06914280  0.59257372  0.16733649     0.16500
O1846       O  0.09223760  0.60791490  0.20470577    -0.60500
H1847       H  0.11760180  0.62449291  0.20097902     0.43500
H1848       H  0.09849080  0.49874302  0.15422788     0.43400
C1849       C  0.21215342  0.91926158  0.52166037    -0.05600
C1850       C  0.24889234  0.93958817  0.52531017    -0.33000
C1851       C  0.26172067  0.96190117  0.54262649     0.36200
C1852       C  0.23743212  0.96509819  0.55623002    -0.06000
C1853       C  0.20094456  0.93956142  0.55463456    -0.32900
C1854       C  0.18820852  0.91684515  0.53743473     0.36100
H1855       H  0.26788908  0.94002872  0.51410032     0.16500
O1856       O  0.29802668  0.98378781  0.54470703    -0.60400
H1857       H  0.18159970  0.93843689  0.56569985     0.16500
O1858       O  0.15226442  0.89278379  0.53609978    -0.60500
H1859       H  0.14127182  0.90669376  0.53104561     0.43500
H1860       H  0.30555205  0.00155684  0.53337794     0.43400
C1861       C  0.21452159  0.76734067  0.55783348    -0.05600
C1862       C  0.23057065  0.80416872  0.55395751    -0.33000
C1863       C  0.22337439  0.81671048  0.53573564     0.36200
C1864       C  0.19857135  0.79241634  0.52122634    -0.06000
C1865       C  0.17834225  0.75636346  0.52666959    -0.32900
C1866       C  0.18573576  0.74368311  0.54474393     0.36100
H1867       H  0.25156702  0.82353064  0.56373212     0.16500
O1868       O  0.24199510  0.85278992  0.53198211    -0.60400
H1869       H  0.15792954  0.73736810  0.51632505     0.16500
O1870       O  0.16773799  0.70740395  0.54792134    -0.60500
H1871       H  0.17854613  0.69761476  0.53815625     0.43500
H1872       H  0.26523846  0.85762040  0.52604969     0.43400
C1873       C  0.08392736  0.80351491  0.52239420    -0.05600
C1874       C  0.06789956  0.82350889  0.52807894    -0.33000
C1875       C  0.04640489  0.81484322  0.54574257     0.36200
C1876       C  0.04033474  0.78523517  0.55826744    -0.06000
C1877       C  0.06134444  0.76935761  0.55422649    -0.32900
C1878       C  0.08272040  0.77805742  0.53647173     0.36100
H1879       H  0.07004727  0.84458982  0.51811636     0.16500
O1880       O  0.02806249  0.83277249  0.54903337    -0.60400
H1881       H  0.05912684  0.74770228  0.56350201     0.16500
O1882       O  0.10037311  0.75966187  0.53244472    -0.60500
H1883       H  0.12177613  0.77089562  0.54145033     0.43500
H1884       H  0.00765766  0.82202953  0.53927039     0.43400
C1885       C  0.29608989  0.59529441  0.39744463    -0.05600
C1886       C  0.27500124  0.59833230  0.38193367    -0.33000
C1887       C  0.26578862  0.57725155  0.36407604     0.36200
C1888       C  0.27634854  0.55133515  0.36202701    -0.06000
C1889       C  0.30350210  0.55406239  0.37536262    -0.32900
C1890       C  0.31301785  0.57543725  0.39311089     0.36100
H1891       H  0.26446772  0.61626710  0.38390721     0.16500
O1892       O  0.24555753  0.58165192  0.34944423    -0.60400
H1893       H  0.31373549  0.53584052  0.37362160     0.16500
O1894       O  0.33672270  0.57449136  0.40674085    -0.60500
H1895       H  0.36053267  0.59411029  0.40232637     0.43500
H1896       H  0.26189202  0.59307055  0.33751633     0.43400
C1897       C  0.20851046  0.92620886  0.37753848    -0.05600
C1898       C  0.17899041  0.92191303  0.38930734    -0.33000
C1899       C  0.17685633  0.91564839  0.41062161     0.36200
C1900       C  0.20339413  0.91150393  0.42050266    -0.06000
C1901       C  0.23216088  0.91446285  0.40875502    -0.32900
C1902       C  0.23544456  0.92267208  0.38771533     0.36100
H1903       H  0.15994461  0.92832651  0.38266937     0.16500
O1904       O  0.14937223  0.91493823  0.42171563    -0.60400
H1905       H  0.25341471  0.91228070  0.41616606     0.16500
O1906       O  0.26795234  0.93388484  0.37827723    -0.60500
H1907       H  0.27225766  0.91342944  0.37903265     0.43500
H1908       H  0.15788549  0.94018100  0.42559051     0.43400
C1909       C  0.29069349  0.71585362  0.39303520    -0.05600
C1910       C  0.25619504  0.69269203  0.38579894    -0.33000
C1911       C  0.24392191  0.69995992  0.36762220     0.36200
C1912       C  0.26659033  0.73116836  0.35591333    -0.06000
C1913       C  0.30296901  0.75065556  0.36150938    -0.32900
C1914       C  0.31487472  0.74371213  0.38002979     0.36100
H1915       H  0.23756953  0.66987252  0.39493595     0.16500
O1916       O  0.20832719  0.67875825  0.36313124    -0.60400
H1917       H  0.32187617  0.77408313  0.35307127     0.16500
O1918       O  0.34981541  0.76559951  0.38565104    -0.60500
H1919       H  0.35044360  0.78659209  0.39240835     0.43500
H1920       H  0.19558004  0.68719121  0.37236558     0.43400
C1921       C  0.19637324  0.79926490  0.41901501    -0.05600
C1922       C  0.22750063  0.82605407  0.40947208    -0.33000
C1923       C  0.23387853  0.82406259  0.38830236     0.36200
C1924       C  0.20827540  0.79562921  0.37593660    -0.06000
C1925       C  0.17682465  0.76944450  0.38559448    -0.32900
C1926       C  0.17086469  0.77093839  0.40673834     0.36100
H1927       H  0.24740453  0.84822459  0.41852140     0.16500
O1928       O  0.26676573  0.84809018  0.38030756    -0.60400
H1929       H  0.15856610  0.74522636  0.37735957     0.16500
O1930       O  0.14072154  0.74326184  0.41542943    -0.60500
H1931       H  0.14810061  0.72626327  0.42040153     0.43500
H1932       H  0.28244925  0.83804683  0.38336355     0.43400
C1933       C  0.45411371  0.73877543  0.35974016    -0.05600
C1934       C  0.44944546  0.76371965  0.37172016    -0.33000
C1935       C  0.42989123  0.75399638  0.39004287     0.36200
C1936       C  0.41172810  0.71805413  0.39621777    -0.06000
C1937       C  0.41155325  0.69218452  0.38283562    -0.32900
C1938       C  0.43298221  0.70215819  0.36498290     0.36100
H1939       H  0.46565607  0.79213015  0.36890638     0.16500
O1940       O  0.43204816  0.78055640  0.40277375    -0.60400
H1941       H  0.39627767  0.66406549  0.38675399     0.16500
O1942       O  0.43362219  0.67580277  0.35343194    -0.60500
H1943       H  0.44722532  0.66746314  0.36178349     0.43500
H1944       H  0.41503627  0.78724471  0.39700056     0.43400
C1945       C  0.08956313  0.80639151  0.42091672    -0.05600
C1946       C  0.08804834  0.77712202  0.41056062    -0.33000
C1947       C  0.08163952  0.77230439  0.38920585     0.36200
C1948       C  0.07721154  0.79748000  0.37751344    -0.06000
C1949       C  0.07921205  0.82701791  0.38811078    -0.32900
C1950       C  0.08450573  0.83113137  0.40948036     0.36100
H1951       H  0.09107261  0.75741179  0.41915092     0.16500
O1952       O  0.07618231  0.74102659  0.38034241    -0.60400
H1953       H  0.07173422  0.84447920  0.38039119     0.16500
O1954       O  0.08230987  0.85825219  0.41924069    -0.60500
H1955       H  0.05686200  0.84774440  0.42336737     0.43500
H1956       H  0.05150635  0.72266457  0.38431189     0.43400
C1957       C  0.36357505  0.62857539  0.18838569    -0.05600
C1958       C  0.38779526  0.65437168  0.20229531    -0.33000
C1959       C  0.39843621  0.64445810  0.22031627     0.36200
C1960       C  0.38479978  0.60783872  0.22471184    -0.06000
C1961       C  0.35540449  0.58265489  0.21275702    -0.32900
C1962       C  0.34504336  0.59268217  0.19470184     0.36100
H1963       H  0.40001018  0.68260105  0.19878662     0.16500
O1964       O  0.42236884  0.67094825  0.23309256    -0.60400
H1965       H  0.34351205  0.55430279  0.21571238     0.16500
O1966       O  0.31886037  0.56670318  0.18259744    -0.60500
H1967       H  0.29609154  0.56378881  0.18814597     0.43500
H1968       H  0.44495570  0.68371531  0.22502309     0.43400
C1969       C  0.38174369  0.75571283  0.18809397    -0.05600
C1970       C  0.35712670  0.75258616  0.20347708    -0.33000
C1971       C  0.36840129  0.77415204  0.22126539     0.36200
C1972       C  0.40485150  0.80010609  0.22338128    -0.06000
C1973       C  0.42966749  0.79687751  0.21042316    -0.32900
C1974       C  0.41838901  0.77537425  0.19270007     0.36100
H1975       H  0.32884336  0.73413350  0.20146629     0.16500
O1976       O  0.34394711  0.76879697  0.23650657    -0.60400
H1977       H  0.45810126  0.81488168  0.21238600     0.16500
O1978       O  0.44352833  0.77619729  0.17927660    -0.60500
H1979       H  0.44906819  0.75802481  0.18458371     0.43500
H1980       H  0.32485961  0.77153153  0.22979316     0.43400
C1981       C  0.25250998  0.64083666  0.18939788    -0.05600
C1982       C  0.24899479  0.61167118  0.20076624    -0.33000
C1983       C  0.22777600  0.59980378  0.21849772     0.36200
C1984       C  0.21025892  0.61802237  0.22594692    -0.06000
C1985       C  0.21894143  0.65076390  0.21612454    -0.32900
C1986       C  0.23952550  0.66197392  0.19803234     0.36100
H1987       H  0.26045660  0.59592859  0.19508748     0.16500
O1988       O  0.22166965  0.56820967  0.22691260    -0.60400
H1989       H  0.20622623  0.66585086  0.22057604     0.16500
O1990       O  0.24408296  0.69196216  0.18811136    -0.60500
H1991       H  0.26713879  0.71174889  0.19326307     0.43500
H1992       H  0.20312326  0.54919310  0.21806049     0.43400
C1993       C  0.43365620  0.56882323  0.02546030    -0.05600
C1994       C  0.41199601  0.53441325  0.03398410    -0.33000
C1995       C  0.42116057  0.52416103  0.05239414     0.36200
C1996       C  0.45281961  0.54800601  0.06271378    -0.06000
C1997       C  0.47666644  0.58032322  0.05310097    -0.32900
C1998       C  0.46746442  0.59104996  0.03494414     0.36100
H1999       H  0.38583820  0.51630110  0.02785955     0.16500
O2000       O  0.39811119  0.49122972  0.06055542    -0.60400
H2001       H  0.50194648  0.59865522  0.06034123     0.16500
O2002       O  0.49053669  0.62491327  0.02798061    -0.60500
H2003       H  0.48565361  0.64102653  0.03667674     0.43500
H2004       H  0.40237167  0.47426940  0.05233584     0.43400
C2005       C  0.37233469  0.63076909  0.04347455    -0.05600
C2006       C  0.34110242  0.60438902  0.05316664    -0.33000
C2007       C  0.33575946  0.60551195  0.07434234     0.36200
C2008       C  0.36159434  0.63375855  0.08646900    -0.06000
C2009       C  0.39234797  0.66083957  0.07690150    -0.32900
C2010       C  0.39802170  0.65947027  0.05564436     0.36100
H2011       H  0.32287455  0.58011176  0.04496889     0.16500
O2012       O  0.30598163  0.57759856  0.08320004    -0.60400
H2013       H  0.41243567  0.68283972  0.08596900     0.16500
O2014       O  0.43094063  0.68323922  0.04754290    -0.60500
H2015       H  0.43242339  0.70689973  0.04809731     0.43500
H2016       H  0.31397316  0.56121372  0.08841963     0.43400
C2017       C  0.43090504  0.88277444  0.02574185    -0.05600
C2018       C  0.46338287  0.89209052  0.03599185    -0.33000
C2019       C  0.47210200  0.90995190  0.05502182     0.36200
C2020       C  0.44954848  0.92114155  0.06382016    -0.06000
C2021       C  0.41947047  0.91565867  0.05275467    -0.32900
C2022       C  0.40974439  0.89651218  0.03422986     0.36100
H2023       H  0.48022032  0.88162734  0.03093930     0.16500
O2024       O  0.50222616  0.91524746  0.06510236    -0.60400
H2025       H  0.40173699  0.92420025  0.05915632     0.16500
O2026       O  0.37755748  0.88865956  0.02587032    -0.60500
H2027       H  0.35922500  0.86819254  0.03402089     0.43500
H2028       H  0.99433210  0.89371722  0.07363564     0.43400
C2029       C  0.37010344  0.74685765  0.08638940    -0.05600
C2030       C  0.34124828  0.74774154  0.07726305    -0.33000
C2031       C  0.34135042  0.75472126  0.05609715     0.36200
C2032       C  0.37044111  0.76023667  0.04327846    -0.06000
C2033       C  0.39913294  0.75888770  0.05264663    -0.32900
C2034       C  0.39924143  0.75255942  0.07383633     0.36100
H2035       H  0.31878988  0.74382600  0.08669551     0.16500
O2036       O  0.31462855  0.75987678  0.04863218    -0.60400
H2037       H  0.42371793  0.76723969  0.04410181     0.16500
O2038       O  0.42907285  0.75426296  0.08233577    -0.60500
H2039       H  0.44364036  0.77916693  0.08747700     0.43500
H2040       H  0.32305708  0.78563578  0.05080050     0.43400
C2041       C  0.11725601  0.57493001  0.02756041    -0.05600
C2042       C  0.09344454  0.53798186  0.02923572    -0.33000
C2043       C  0.07028107  0.52433137  0.04624239     0.36200
C2044       C  0.07121871  0.54766985  0.06192381    -0.06000
C2045       C  0.08975126  0.58443458  0.05811266    -0.32900
C2046       C  0.11211029  0.59819937  0.04097206     0.36100
H2047       H  0.09403993  0.51919306  0.01838876     0.16500
O2048       O  0.04801012  0.48815211  0.04770795    -0.60400
H2049       H  0.08879724  0.60302537  0.06908554     0.16500
O2050       O  0.13212123  0.63470681  0.03894297    -0.60500
H2051       H  0.15024384  0.64311011  0.05010474     0.43500
H2052       H  0.02628416  0.48323658  0.03992859     0.43400
C2053       C  0.25649488  0.64395121  0.08741837    -0.05600
C2054       C  0.25335195  0.61374740  0.07729015    -0.33000
C2055       C  0.24512891  0.60782807  0.05614487     0.36200
C2056       C  0.24112898  0.63307517  0.04422077    -0.06000
C2057       C  0.24500241  0.66367889  0.05453869    -0.32900
C2058       C  0.25178785  0.66879026  0.07581622     0.36100
H2059       H  0.25624500  0.59400035  0.08594874     0.16500
O2060       O  0.23720250  0.57535686  0.04788555    -0.60400
H2061       H  0.23809755  0.68150297  0.04674090     0.16500
O2062       O  0.25142594  0.69707329  0.08535537    -0.60500
H2063       H  0.22678919  0.68720049  0.09087933     0.43500
H2064       H  0.21119149  0.55945875  0.05022711     0.43400
C2065       C  0.28363105  0.90956077  0.69358297    -0.05600
C2066       C  0.25856215  0.87300965  0.69551036    -0.33000
C2067       C  0.23502410  0.86063115  0.71239415     0.36200
C2068       C  0.23650004  0.88493996  0.72769273    -0.06000
C2069       C  0.25679365  0.92150916  0.72378057    -0.32900
C2070       C  0.27993513  0.93401727  0.70684600     0.36100
H2071       H  0.25863635  0.85345045  0.68507000     0.16500
O2072       O  0.21224700  0.82452986  0.71434748    -0.60400
H2073       H  0.25695059  0.94071216  0.73472110     0.16500
O2074       O  0.30310214  0.97016361  0.70554279    -0.60500
H2075       H  0.28877313  0.98023128  0.69982734     0.43500
H2076       H  0.18949311  0.82004728  0.70804122     0.43400
C2077       C  0.12296182  0.75794690  0.72738955    -0.05600
C2078       C  0.14262432  0.74120383  0.72253005    -0.33000
C2079       C  0.13442032  0.71938936  0.70507573     0.36200
C2080       C  0.10566244  0.71376166  0.69196084    -0.06000
C2081       C  0.09057561  0.73568912  0.69493617    -0.32900
C2082       C  0.09860684  0.75719073  0.71261904     0.36100
H2083       H  0.16293454  0.74296835  0.73300371     0.16500
O2084       O  0.15165571  0.70016709  0.70256582    -0.60400
H2085       H  0.06999814  0.73404606  0.68487303     0.16500
O2086       O  0.08126835  0.77613217  0.71563926    -0.60500
H2087       H  0.05754571  0.75864155  0.72142658     0.43500
H2088       H  0.14065128  0.68048139  0.71280307     0.43400
C2089       C  0.09271551  0.89378800  0.69115288    -0.05600
C2090       C  0.06735563  0.86384821  0.70277894    -0.33000
C2091       C  0.07617891  0.85473161  0.72165368     0.36200
C2092       C  0.11142126  0.87401153  0.72880391    -0.06000
C2093       C  0.13775955  0.90008163  0.71591479    -0.32900
C2094       C  0.12883700  0.91047230  0.69756989     0.36100
H2095       H  0.03919362  0.85067236  0.69914183     0.16500
O2096       O  0.04944479  0.82942479  0.73384183    -0.60400
H2097       H  0.16557921  0.91422034  0.72055001     0.16500
O2098       O  0.15571617  0.93841590  0.68694188    -0.60500
H2099       H  0.16095107  0.96017806  0.69495904     0.43500
H2100       H  0.04274251  0.80614071  0.72726197     0.43400
C2101       C  0.06314427  0.62694740  0.89118730    -0.05600
C2102       C  0.02634445  0.60475431  0.88752549    -0.33000
C2103       C  0.01435693  0.58324902  0.86980155     0.36200
C2104       C  0.03931199  0.58349771  0.85543557    -0.06000
C2105       C  0.07522008  0.59974186  0.86123602    -0.32900
C2106       C  0.08723638  0.62085950  0.87906948     0.36100
H2107       H  0.00644402  0.60583303  0.89716304     0.16500
O2108       O  0.97827532  0.56390324  0.86614419    -0.60400
H2109       H  0.09460283  0.59797485  0.85130496     0.16500
O2110       O  0.12324999  0.63872861  0.88305543    -0.60500
H2111       H  0.13409853  0.65866352  0.87297733     0.43500
H2112       H  0.96945655  0.54186795  0.87450801     0.43400
C2113       C  0.12473888  0.76462335  0.82904241    -0.05600
C2114       C  0.15210866  0.76437378  0.84051527    -0.33000
C2115       C  0.14805850  0.75639140  0.86162004     0.36200
C2116       C  0.11666426  0.74987540  0.87217006    -0.06000
C2117       C  0.08951672  0.75091470  0.86069169    -0.32900
C2118       C  0.09306634  0.75745478  0.83931904     0.36100
H2119       H  0.17640924  0.76881537  0.83289036     0.16500
O2120       O  0.17211297  0.74903771  0.87092271    -0.60400
H2121       H  0.06371351  0.74248576  0.86778565     0.16500
O2122       O  0.06497274  0.75565867  0.82857547    -0.60500
H2123       H  0.04903838  0.72992008  0.82547273     0.43500
H2124       H  0.19518315  0.77182291  0.87084931     0.43400
C2125       C  0.36832486  0.95195184  0.88803976    -0.05600
C2126       C  0.39224455  0.93909375  0.88582449    -0.33000
C2127       C  0.41442193  0.94789505  0.86839242     0.36200
C2128       C  0.41332178  0.97030568  0.85288596    -0.06000
C2129       C  0.39399601  0.98774869  0.85680087    -0.32900
C2130       C  0.37209383  0.97931950  0.87429973     0.36100
H2131       H  0.39222462  0.92007005  0.89656010     0.16500
O2132       O  0.43572608  0.93289574  0.86626921    -0.60400
H2133       H  0.39424395  0.00661780  0.84573485     0.16500
O2134       O  0.35118301  0.99483754  0.87647038    -0.60500
H2135       H  0.33248145  0.98379536  0.86567010     0.43500
H2136       H  0.45840570  0.94980749  0.87326678     0.43400
C2137       C  0.24501928  0.88301416  0.87224372    -0.05600
C2138       C  0.24057728  0.90941846  0.86233467    -0.33000
C2139       C  0.23401878  0.90797437  0.84106611     0.36200
C2140       C  0.23018609  0.87880955  0.82916838    -0.06000
C2141       C  0.23371317  0.85186470  0.83889030    -0.32900
C2142       C  0.24222289  0.85437923  0.85997795     0.36100
H2143       H  0.24744930  0.93411404  0.87035810     0.16500
O2144       O  0.23543284  0.93703074  0.83148291    -0.60400
H2145       H  0.23124251  0.82943602  0.82995798     0.16500
O2146       O  0.25243434  0.83139882  0.86777294    -0.60500
H2147       H  0.27799845  0.84182531  0.86392023     0.43500
H2148       H  0.22188712  0.94499472  0.84033963     0.43400
C2149       C  0.04591162  0.93579371  0.89229028    -0.05600
C2150       C  0.06101361  0.97259326  0.88867989    -0.33000
C2151       C  0.05310974  0.98487797  0.87060896     0.36200
C2152       C  0.02911923  0.96025181  0.85593939    -0.06000
C2153       C  0.00931025  0.92418269  0.86135318    -0.32900
C2154       C  0.01697459  0.91181913  0.87940308     0.36100
H2155       H  0.08171465  0.99216059  0.89852491     0.16500
O2156       O  0.07022839  0.02101969  0.86713970    -0.60400
H2157       H  0.98933515  0.90492526  0.85090467     0.16500
O2158       O  0.00038836  0.87551223  0.88210268    -0.60500
H2159       H  0.97732203  0.86892795  0.88899421     0.43500
H2160       H  0.09344928  0.02698937  0.86066696     0.43400
C2161       C  0.11622991  0.87008018  0.83021210    -0.05600
C2162       C  0.14283829  0.90160876  0.83935738    -0.33000
C2163       C  0.14194632  0.90800939  0.86056171     0.36200
C2164       C  0.11457352  0.88207556  0.87334212    -0.06000
C2165       C  0.08813337  0.85037414  0.86397665    -0.32900
C2166       C  0.08846027  0.84458331  0.84273477     0.36100
H2167       H  0.16372453  0.92198406  0.82985893     0.16500
O2168       O  0.16531848  0.94147118  0.86811724    -0.60400
H2169       H  0.06421593  0.83214163  0.87247698     0.16500
O2170       O  0.05990668  0.81510338  0.83415314    -0.60500
H2171       H  0.04192309  0.82241794  0.83139695     0.43500
H2172       H  0.15392648  0.95607500  0.86541581     0.43400
C2173       C  0.56927985  0.42258974  0.90314435     0.86300
C2174       C  0.60278433  0.44752989  0.91621178    -0.53900
C2175       C  0.62223326  0.43225781  0.92337137     0.09300
C2176       C  0.60555073  0.39257220  0.91553908     0.20200
C2177       C  0.58456557  0.41124618  0.88578044    -0.54600
C2178       C  0.60304826  0.39540219  0.89139695     0.09400
C2179       C  0.54761933  0.38875753  0.91608374    -0.54200
C2180       C  0.56583187  0.37250695  0.92316508     0.09900
H2181       H  0.61205980  0.47567292  0.91814393     0.14400
H2182       H  0.62041111  0.37936248  0.92079791     0.00200
H2183       H  0.58057011  0.41506509  0.86953745     0.14800
H2184       H  0.51916311  0.37758355  0.91846956     0.14500
C2185       C  0.83300301  0.42927893  0.90013054     0.86300
C2186       C  0.82468326  0.39566362  0.91297165    -0.53900
C2187       C  0.79061464  0.37689937  0.92139281     0.09300
C2188       C  0.76772100  0.39417414  0.91455261     0.20200
C2189       C  0.80528086  0.41381948  0.88358465    -0.54600
C2190       C  0.77135316  0.39594363  0.89015628     0.09400
C2191       C  0.82228619  0.45173651  0.91364511    -0.54200
C2192       C  0.78846105  0.43417371  0.92191184     0.09900
H2193       H  0.84246453  0.38492590  0.91299766     0.14400
H2194       H  0.74004165  0.37996899  0.92067831     0.00200
H2195       H  0.81207645  0.41690199  0.86713021     0.14800
H2196       H  0.83977228  0.48037120  0.91507702     0.14500
C2197       C  0.57657982  0.16320245  0.90155606     0.86300
C2198       C  0.55055060  0.17208436  0.91330209    -0.53900
C2199       C  0.56525426  0.20657029  0.92083408     0.09300
C2200       C  0.60536881  0.22957307  0.91408476     0.20200
C2201       C  0.58970605  0.18968745  0.88420767    -0.54600
C2202       C  0.60463663  0.22409748  0.88991603     0.09400
C2203       C  0.60918929  0.17549940  0.91562054    -0.54200
C2204       C  0.62505481  0.21019990  0.92265203     0.09900
H2205       H  0.52210361  0.15392150  0.91368671     0.14400
H2206       H  0.61753745  0.25754352  0.91954447     0.00200
H2207       H  0.58691665  0.18166317  0.86796771     0.14800
H2208       H  0.62011774  0.15822953  0.91859811     0.14500
O2209       O  0.65587394  0.38635232  0.75425712    -0.82000
C2210       C  0.63232546  0.27733579  0.80763442     0.97400
O2211       O  0.60815556  0.27416421  0.79529792    -0.71100
O2212       O  0.60589774  0.33066170  0.80313143    -0.74700
Al2213     Al  0.60982985  0.31157453  0.77807836     1.49000
C2214       C  0.62128842  0.36275933  0.80872501     0.92700
O2215       O  0.70104686  0.38922484  0.80311799    -0.80900
O2216       O  0.70576376  0.34020440  0.75314342    -0.74400
Al2217     Al  0.67771270  0.38586960  0.77863967     1.90100
O2218       O  0.72118267  0.35310016  0.79562089    -0.73500
O2219       O  0.65266012  0.27866001  0.76030481    -0.73400
O2220       O  0.66449485  0.29439178  0.80227667    -0.79000
O2221       O  0.61032708  0.29033665  0.75283021    -0.77200
O2222       O  0.65720026  0.33851572  0.77817469    -1.13400
O2223       O  0.60165497  0.34343377  0.76118371    -0.72600
C2224       C  0.62366522  0.36782754  0.74927148     0.98200
C2225       C  0.71811859  0.37413155  0.80817622     0.94600
Al2226     Al  0.68408955  0.31803677  0.77780562     1.55600
O2227       O  0.64235274  0.38713762  0.79645859    -0.77200
C2228       C  0.62914182  0.27679015  0.74793431     0.98700
C2229       C  0.71900674  0.37244455  0.74843396     0.93600
O2230       O  0.71718617  0.39419475  0.76096773    -0.82500
N2231       N  0.78966863  0.00504344  0.95899566    -0.36800
N2232       N  0.71801015  0.45854499  0.94127483    -0.57300
N2233       N  0.69224999  0.00536675  0.95931219    -0.36800
N2234       N  0.76485362  0.05182160  0.97761868    -0.57300
C2235       C  0.79672865  0.48163768  0.94906815     0.26800
C2236       C  0.82034965  0.02887811  0.96893917     0.26800
C2237       C  0.66222694  0.48086334  0.95009728     0.26800
C2238       C  0.68592078  0.02928088  0.96977436     0.26800
C2239       C  0.73742890  0.44629118  0.93079540     0.35400
C2240       C  0.68661259  0.44664657  0.93077772     0.35400
C2241       C  0.79707871  0.06488357  0.98747693     0.35400
C2242       C  0.74611448  0.06546815  0.98752864     0.35400
C2243       C  0.83177528  0.49061774  0.95304129    -0.22000
C2244       C  0.84627314  0.01993563  0.96415755    -0.22000
C2245       C  0.63543585  0.48804138  0.95566194    -0.22000
C2246       C  0.65065122  0.01989988  0.96598738    -0.22000
C2247       C  0.71802665  0.42697419  0.91391438    -0.23100
C2248       C  0.68701872  0.42750933  0.91376473    -0.23100
C2249       C  0.79801287  0.08628431  0.00358058    -0.23100
C2250       C  0.76689792  0.08675213  0.00356591    -0.23100
C2251       C  0.77318028  0.45371187  0.93497317    -0.18400
C2252       C  0.82528508  0.05701659  0.98312219    -0.18400
C2253       C  0.71009162  0.05802753  0.98344933    -0.18400
C2254       C  0.65788139  0.45338616  0.93553163    -0.18400
H2255       H  0.84551308  0.47637346  0.94887526     0.14500
H2256       H  0.87445351  0.03427336  0.96764320     0.14500
H2257       H  0.60722247  0.47273608  0.95230575     0.14500
H2258       H  0.63676248  0.03397818  0.97013318     0.14500
H2259       H  0.72538015  0.41488427  0.90197907     0.12700
H2260       H  0.66823406  0.41616228  0.90153351     0.12700
H2261       H  0.81801745  0.09963381  0.01503313     0.12700
H2262       H  0.76081590  0.10056783  0.01506845     0.12700
H2263       H  0.76608115  0.00554883  0.95884265     0.26000
H2264       H  0.71661611  0.00652415  0.95824269     0.26000
C2265       C  0.65281394  0.08837178  0.01716587     0.86300
C2266       C  0.66167480  0.06354129  0.00417170    -0.53900
C2267       C  0.69569407  0.07939295  0.99574953     0.09300
C2268       C  0.71801633  0.11974302  0.00261698     0.20200
C2269       C  0.68069138  0.10140399  0.03370223    -0.54600
C2270       C  0.71465424  0.11820256  0.02709649     0.09400
C2271       C  0.66275175  0.12133117  0.00382648    -0.54200
C2272       C  0.69645396  0.13827501  0.99539770     0.09900
H2273       H  0.64405995  0.03494812  0.00367560     0.14400
H2274       H  0.74562242  0.13330641  0.99636964     0.00200
H2275       H  0.67394207  0.09768085  0.05015157     0.14800
H2276       H  0.64504194  0.13221557  0.00312188     0.14500
C2277       C  0.91223707  0.34542476  0.01501494     0.86300
C2278       C  0.88071821  0.33616655  0.00038871    -0.53900
C2279       C  0.86286185  0.30163356  0.99296760     0.09300
C2280       C  0.88019075  0.27963647  0.00131188     0.20200
C2281       C  0.89630770  0.31810335  0.03182719    -0.54600
C2282       C  0.88024456  0.28395026  0.02562110     0.09400
C2283       C  0.93685616  0.33504989  0.00310205    -0.54200
C2284       C  0.92065942  0.30099947  0.99496705     0.09900
H2285       H  0.87189772  0.35500170  0.99723590     0.14400
H2286       H  0.86661253  0.25177728  0.99546052     0.00200
H2287       H  0.89904836  0.32539964  0.04819916     0.14800
H2288       H  0.96542514  0.35264576  0.00239593     0.14500
C2289       C  0.91389784  0.08482115  0.01485012     0.86300
C2290       C  0.93642914  0.11705779  0.00063838    -0.53900
C2291       C  0.91966073  0.13495281  0.99356247     0.09300
C2292       C  0.88046065  0.11755521  0.00203605     0.20200
C2293       C  0.90242151  0.10029710  0.03201520    -0.54600
C2294       C  0.88499787  0.11713819  0.02617146     0.09400
C2295       C  0.87892039  0.06073041  0.00282490    -0.59000
C2296       C  0.86102566  0.07725424  0.99534394     0.09900
H2297       H  0.96423927  0.12642432  0.99752123     0.14400
H2298       H  0.86646001  0.13144496  0.99649437     0.00200
H2299       H  0.90727497  0.09757857  0.04828355     0.14800
H2300       H  0.86820099  0.03222581  0.00139354     0.14500
O2301       O  0.87736313  0.17227015  0.16347785    -0.82000
C2302       C  0.76920477  0.15152647  0.10928116     0.97400
O2303       O  0.76624495  0.12712135  0.12131684    -0.71100
O2304       O  0.82183673  0.12361089  0.11378440    -0.74700
Al2305     Al  0.80294184  0.12784494  0.13863362     1.49000
C2306       C  0.85394427  0.13765319  0.10850980     0.92700
O2307       O  0.88217925  0.21707064  0.11324067    -0.80900
O2308       O  0.83586558  0.22537135  0.16377557    -0.74400
Al2309     Al  0.87832377  0.19417967  0.13830300     1.90100
O2310       O  0.84704822  0.23855084  0.12085617    -0.73500
O2311       O  0.77295429  0.17326936  0.15783207    -0.73400
O2312       O  0.78640734  0.18358727  0.11490553    -0.79000
O2313       O  0.78164567  0.12835924  0.16344550    -0.77200
O2314       O  0.83095156  0.17508572  0.13875151    -1.13400
O2315       O  0.83388538  0.11863078  0.15580519    -0.72600
C2316       C  0.85757382  0.13999202  0.16832197     0.98200
C2317       C  0.86688120  0.23400219  0.10804632     0.94600
Al2318     Al  0.81188276  0.20319257  0.13933839     1.55600
O2319       O  0.87837471  0.15754282  0.12106062    -0.77200
C2320       C  0.76967203  0.14806104  0.16928383     0.98700
C2321       C  0.86834259  0.23817537  0.16796229     0.93600
O2322       O  0.88890366  0.23516219  0.15512244    -0.82500
N2323       N  0.99426260  0.30266840  0.95923971    -0.36800
N2324       N  0.94600521  0.23091611  0.97617568    -0.57300
N2325       N  0.99156713  0.20443880  0.95687771    -0.36800
N2326       N  0.54010131  0.27645346  0.93994116    -0.57300
C2327       C  0.97056885  0.30977035  0.96929675     0.26800
C2328       C  0.52013027  0.33350398  0.95048828     0.26800
C2329       C  0.96624659  0.17381893  0.96617960     0.26800
C2330       C  0.51504081  0.19730976  0.94657131     0.26800
C2331       C  0.93338084  0.25009868  0.98655054     0.35400
C2332       C  0.93328565  0.19903812  0.98622364     0.35400
C2333       C  0.55347162  0.30881640  0.93036525     0.35400
C2334       C  0.55123795  0.25676264  0.92877765     0.35400
C2335       C  0.98112635  0.34535057  0.96581552    -0.22000
C2336       C  0.51355418  0.36068834  0.95613450    -0.22000
C2337       C  0.97286222  0.14665568  0.96058360    -0.22000
C2338       C  0.50484116  0.16187563  0.95031131    -0.22000
C2339       C  0.91299249  0.23008581  0.00295867    -0.23100
C2340       C  0.91333013  0.19899932  0.00295107    -0.23100
C2341       C  0.57305753  0.30914533  0.91338562    -0.23100
C2342       C  0.57085388  0.27675537  0.91206688    -0.23100
C2343       C  0.94135766  0.28608072  0.98263249    -0.18400
C2344       C  0.54699792  0.33748957  0.93568487    -0.18400
C2345       C  0.54366064  0.22087685  0.93281571    -0.18400
C2346       C  0.93957242  0.17011773  0.98109964    -0.18400
H2347       H  0.96725320  0.35969798  0.96932492     0.14500
H2348       H  0.52947467  0.38897288  0.95298945     0.14500
H2349       H  0.95710676  0.11841814  0.96384807     0.14500
H2350       H  0.51853868  0.14745397  0.94661295     0.14500
H2351       H  0.89988697  0.23680971  0.01457403     0.12700
H2352       H  0.90080460  0.17977720  0.01482580     0.12700
H2353       H  0.58708367  0.32978449  0.90241365     0.12700
H2354       H  0.58170482  0.26907183  0.89948909     0.12700
H2355       H  0.99219122  0.27801247  0.95761398     0.26000
H2356       H  0.99329766  0.22899851  0.95812590     0.26000
N2357       N  0.69461156  0.20925763  0.95909266    -0.36800
N2358       N  0.72064447  0.28151781  0.94046957    -0.57300
N2359       N  0.79279777  0.30530406  0.95738104    -0.36800
N2360       N  0.76666090  0.23253771  0.97555862    -0.57300
C2361       C  0.66371215  0.20437079  0.95049589     0.26800
C2362       C  0.68723270  0.17881492  0.96950552     0.26800
C2363       C  0.80020820  0.33564274  0.94677111     0.26800
C2364       C  0.82369671  0.31001407  0.96600455     0.26800
C2365       C  0.68819172  0.26250082  0.93087859     0.35400
C2366       C  0.73986602  0.31307167  0.92999124     0.35400
C2367       C  0.74721991  0.20129730  0.98627187     0.35400
C2368       C  0.79871964  0.25165390  0.98545818     0.35400
C2369       C  0.63627596  0.17104475  0.95644827    -0.22000
C2370       C  0.65134768  0.15410496  0.96644478    -0.22000
C2371       C  0.83615508  0.36024609  0.94978807    -0.22000
C2372       C  0.85111234  0.34337846  0.96009917    -0.22000
C2373       C  0.68740227  0.28241270  0.91457578    -0.23100
C2374       C  0.71919739  0.31314689  0.91389177    -0.23100
C2375       C  0.76709245  0.20145185  0.00279190    -0.23100
C2376       C  0.79869350  0.23222822  0.00225547    -0.23100
C2377       C  0.65978052  0.22692054  0.93561935    -0.18400
C2378       C  0.71111183  0.17335344  0.98264904    -0.18400
C2379       C  0.82764431  0.28678227  0.98049153    -0.18400
C2380       C  0.77624644  0.34113327  0.93359793    -0.18400
H2381       H  0.60802662  0.15890525  0.95325231     0.14500
H2382       H  0.63664510  0.12609391  0.97031273     0.14500
H2383       H  0.85104157  0.38812432  0.94569736     0.14500
H2384       H  0.87938057  0.35539466  0.96315679     0.14500
H2385       H  0.66735131  0.27590615  0.90320161     0.12700
H2386       H  0.72592230  0.33192521  0.90175269     0.12700
H2387       H  0.75969539  0.18279116  0.01505653     0.12700
H2388       H  0.81803383  0.23916436  0.01401248     0.12700
H2389       H  0.71954856  0.23136162  0.95691570     0.26000
H2390       H  0.76781746  0.28324818  0.95955655     0.26000
C2391       C  0.99123594  0.25509979  0.34899603     0.86300
C2392       C  0.50144802  0.23338079  0.33416372    -0.53900
C2393       C  0.53614116  0.25110545  0.32670788     0.09300
C2394       C  0.55746198  0.29008649  0.33575391     0.20200
C2395       C  0.51832072  0.26601909  0.36590493    -0.54600
C2396       C  0.55259445  0.28453779  0.35993714     0.09400
C2397       C  0.50143054  0.29002541  0.33744679    -0.54200
C2398       C  0.53565354  0.30873643  0.32978514     0.09900
H2399       H  0.98324864  0.20554610  0.33099289     0.14400
H2400       H  0.58544706  0.30516271  0.33013713     0.00200
H2401       H  0.51068398  0.26036149  0.38218514     0.14800
H2402       H  0.98313813  0.30028458  0.33648204     0.14500
C2403       C  0.75032135  0.25192933  0.34632815     0.86300
C2404       C  0.77437222  0.28580786  0.33344571    -0.53900
C2405       C  0.75825791  0.30449783  0.32660016     0.09300
C2406       C  0.71853368  0.28661780  0.33426728     0.20200
C2407       C  0.73789638  0.26593720  0.36388562    -0.54600
C2408       C  0.72129530  0.28381562  0.35842535     0.09400
C2409       C  0.71667256  0.22963217  0.33326061    -0.54200
C2410       C  0.69943884  0.24699656  0.32628700     0.09900
H2411       H  0.80254331  0.29567021  0.33108807     0.14400
H2412       H  0.70495393  0.30107447  0.32899226     0.00200
H2413       H  0.74177882  0.26172458  0.38007334     0.14800
H2414       H  0.70624600  0.20138254  0.33091866     0.14500
C2415       C  0.75303245  0.01443651  0.35088404     0.86300
C2416       C  0.72016043  0.50703481  0.33849723    -0.53900
C2417       C  0.70149697  0.47332274  0.32991427     0.09300
C2418       C  0.71854777  0.45009678  0.33642493     0.20200
C2419       C  0.73882506  0.48751810  0.36749025    -0.54600
C2420       C  0.72100498  0.45358593  0.36077092     0.09400
C2421       C  0.77626312  0.50436305  0.33735456    -0.54200
C2422       C  0.75847790  0.47049532  0.32903453     0.09900
H2423       H  0.70692513  0.02197930  0.33898823     0.14400
H2424       H  0.70357950  0.42247102  0.33026388     0.00200
H2425       H  0.74234721  0.49413851  0.38395197     0.14800
H2426       H  0.80448479  0.02116436  0.33635593     0.14500
O2427       O  0.61485268  0.29074680  0.49683437    -0.82000
C2428       C  0.69861251  0.39853230  0.44205400     0.97400
O2429       O  0.67837694  0.40222394  0.45492617    -0.71100
O2430       O  0.61900667  0.34609997  0.44818009    -0.74700
Al2431     Al  0.64330993  0.36540080  0.47271153     1.49000
C2432       C  0.60198705  0.31400716  0.44265373     0.92700
O2433       O  0.65570433  0.28761745  0.44658861    -0.80900
O2434       O  0.71106167  0.33656276  0.49620254    -0.74400
Al2435     Al  0.63647815  0.29096134  0.47174791     1.90100
O2436       O  0.71208849  0.32303148  0.45367574    -0.73500
O2437       O  0.71990269  0.39844753  0.48883069    -0.73400
O2438       O  0.71403297  0.38165197  0.44694802    -0.79000
O2439       O  0.66621122  0.38696394  0.49744998    -0.77200
O2440       O  0.66349370  0.33827363  0.47200194    -1.13400
O2441       O  0.60405975  0.33402290  0.49025548    -0.72600
C2442       C  0.60159223  0.30963492  0.50210601     0.98200
C2443       C  0.68783876  0.30280079  0.44110922     0.94600
Al2444     Al  0.71089815  0.35851575  0.47149283     1.55600
O2445       O  0.59923444  0.28961194  0.45464197    -0.77200
C2446       C  0.69870504  0.40030812  0.50173668     0.98700
C2447       C  0.69222000  0.30425663  0.50101528     0.93600
O2448       O  0.66826717  0.28256118  0.48871261    -0.82500
C2449       C  0.67226532  0.09639728  0.23624453     0.86300
C2450       C  0.66322428  0.06459802  0.25077624    -0.53900
C2451       C  0.62797452  0.04482997  0.25703762     0.09300
C2452       C  0.60505689  0.06039477  0.24777739     0.20200
C2453       C  0.64690677  0.07968619  0.21858297    -0.54600
C2454       C  0.61212622  0.06166142  0.22370657     0.09400
C2455       C  0.65868412  0.11878371  0.24748759    -0.54200
C2456       C  0.62421838  0.10079508  0.25484363     0.09900
H2457       H  0.68265236  0.05701478  0.25476217     0.14400
H2458       H  0.57653405  0.04471099  0.25239308     0.00200
H2459       H  0.65592305  0.08323674  0.20250345     0.14800
H2460       H  0.67513583  0.14746326  0.24887843     0.14500
C2461       C  0.91783730  0.33656843  0.23455483     0.86300
C2462       C  0.89168572  0.34551001  0.24642622    -0.53900
C2463       C  0.90640465  0.37940735  0.25490282     0.09300
C2464       C  0.94672874  0.40231288  0.24839568     0.20200
C2465       C  0.93274146  0.36440136  0.21785445    -0.54600
C2466       C  0.94575580  0.39855757  0.22401870     0.09400
C2467       C  0.94973095  0.34731244  0.24864035    -0.54200
C2468       C  0.96537215  0.38130907  0.25651663     0.09900
H2469       H  0.86314459  0.32862058  0.24582735     0.14400
H2470       H  0.96050080  0.43026136  0.25415229     0.00200
H2471       H  0.92958635  0.35693613  0.20152535     0.14800
H2472       H  0.96084466  0.32990026  0.25063818     0.14500
C2473       C  0.90628380  0.09306276  0.23575452     0.86300
C2474       C  0.94017828  0.11844564  0.24830079    -0.53900
C2475       C  0.95940370  0.10344673  0.25607418     0.09300
C2476       C  0.94230856  0.06342513  0.24931107     0.20200
C2477       C  0.92150667  0.08071941  0.21881406    -0.54600
C2478       C  0.93960061  0.06474192  0.22512404     0.09400
C2479       C  0.88440803  0.05942313  0.24900603    -0.54200
C2480       C  0.90255689  0.04344847  0.25680040     0.09900
H2481       H  0.95144914  0.14694181  0.24824065     0.14400
H2482       H  0.95752773  0.05117154  0.25536791     0.00200
H2483       H  0.91772393  0.08384428  0.20244231     0.14800
H2484       H  0.85563406  0.04747505  0.25030481     0.14500
O2485       O  0.99331358  0.05417717  0.08851659    -0.82000
C2486       C  0.96327343  0.44886251  0.14310640     0.97400
O2487       O  0.94001280  0.44445041  0.12975303    -0.71100
O2488       O  0.94039106  0.00072160  0.13722706    -0.74700
Al2489     Al  0.94441118  0.48209574  0.11192524     1.49000
C2490       C  0.95888878  0.03242886  0.14317754     0.92700
O2491       O  0.53671793  0.05270982  0.13773522    -0.80900
O2492       O  0.53640050  0.00073468  0.08725248    -0.74400
Al2493     Al  0.51408823  0.05136194  0.11316902     1.90100
O2494       O  0.55391765  0.01464387  0.12939266    -0.73500
O2495       O  0.98117098  0.44202284  0.09586406    -0.73400
O2496       O  0.99546138  0.46182539  0.13776968    -0.79000
O2497       O  0.94286677  0.45877131  0.08743099    -0.77200
O2498       O  0.99039287  0.00415445  0.11262229    -1.13400
O2499       O  0.93788330  0.01356705  0.09513819    -0.72600
C2500       C  0.96098028  0.03749464  0.08341081     0.98200
C2501       C  0.55310799  0.03658974  0.14217443     0.94600
Al2502     Al  0.51560952  0.48189407  0.11210864     1.55600
O2503       O  0.98074368  0.05606910  0.13087189    -0.77200
C2504       C  0.95844676  0.44155237  0.08340894     0.98700
C2505       C  0.55212449  0.03355135  0.08295527     0.93600
O2506       O  0.55218583  0.05591581  0.09579606    -0.82500
N2507       N  0.53342440  0.17975860  0.28927263    -0.36800
N2508       N  0.60566139  0.22543027  0.30740248    -0.57300
N2509       N  0.62696026  0.17376863  0.29138160    -0.36800
N2510       N  0.55530033  0.12849207  0.27308398    -0.57300
C2511       C  0.52856772  0.20556673  0.29848263     0.26800
C2512       C  0.50218666  0.15552970  0.27999487     0.26800
C2513       C  0.65852223  0.19913658  0.29985534     0.26800
C2514       C  0.63252223  0.14867897  0.28177529     0.26800
C2515       C  0.58693218  0.23854410  0.31777975     0.35400
C2516       C  0.63663676  0.23623567  0.31811040     0.35400
C2517       C  0.52386033  0.11695679  0.26273453     0.35400
C2518       C  0.57330132  0.11376003  0.26345845     0.35400
C2519       C  0.49461052  0.19880423  0.29354358    -0.22000
C2520       C  0.97701114  0.16558131  0.28433386    -0.22000
C2521       C  0.68438324  0.19042595  0.29472436    -0.22000
C2522       C  0.66745785  0.15734487  0.28583490    -0.22000
C2523       C  0.60654417  0.25747633  0.33474802    -0.23100
C2524       C  0.63694699  0.25587895  0.33498838    -0.23100
C2525       C  0.52313857  0.09578756  0.24647697    -0.23100
C2526       C  0.55303624  0.09302659  0.24718943    -0.23100
C2527       C  0.55169374  0.23226235  0.31324883    -0.18400
C2528       C  0.49604693  0.12552658  0.26703838    -0.18400
C2529       C  0.60872998  0.12045551  0.26779523    -0.18400
C2530       C  0.66415187  0.22770196  0.31380086    -0.18400
H2531       H  0.98192635  0.21412777  0.29727447     0.14500
H2532       H  0.94863400  0.15144132  0.28147765     0.14500
H2533       H  0.71287917  0.20563085  0.29728356     0.14500
H2534       H  0.68060278  0.14218486  0.28254358     0.14500
H2535       H  0.59998301  0.27004930  0.34678765     0.12700
H2536       H  0.65583479  0.26688294  0.34717473     0.12700
H2537       H  0.50416854  0.08422429  0.23445716     0.12700
H2538       H  0.55901556  0.07825184  0.23610085     0.12700
H2539       H  0.55646155  0.17828914  0.28970601     0.26000
H2540       H  0.60283871  0.17302698  0.29276044     0.26000
N2541       N  0.83056014  0.47235348  0.29229910    -0.36800
N2542       N  0.78408208  0.40058566  0.30984257    -0.57300
N2543       N  0.83216765  0.37589156  0.29157081    -0.36800
N2544       N  0.87783853  0.44755701  0.27369369    -0.57300
C2545       C  0.80618241  0.47857322  0.30224099     0.26800
C2546       C  0.85508675  0.50319999  0.28284555     0.26800
C2547       C  0.80611390  0.34474708  0.30008411     0.26800
C2548       C  0.85501605  0.36880345  0.28043169     0.26800
C2549       C  0.77037078  0.41903941  0.31998576     0.35400
C2550       C  0.77185016  0.36876612  0.31988475     0.35400
C2551       C  0.89111989  0.48003136  0.26414619     0.35400
C2552       C  0.89166649  0.42916614  0.26358229     0.35400
C2553       C  0.81486576  0.51345658  0.29811007    -0.22000
C2554       C  0.84667266  0.02903314  0.28806787    -0.22000
C2555       C  0.81213317  0.31754876  0.29368473    -0.22000
C2556       C  0.84385369  0.33283414  0.28307784    -0.22000
C2557       C  0.74938161  0.39835959  0.33608371    -0.23100
C2558       C  0.75100929  0.36792179  0.33633866    -0.23100
C2559       C  0.91291876  0.48139518  0.24815842    -0.23100
C2560       C  0.91278737  0.45015590  0.24770481    -0.23100
C2561       C  0.77798151  0.45496098  0.31611600    -0.18400
C2562       C  0.88293990  0.50794007  0.26857468    -0.18400
C2563       C  0.88426749  0.39313985  0.26716160    -0.18400
C2564       C  0.77888939  0.34034463  0.31480204    -0.18400
H2565       H  0.79980541  0.02608149  0.30202324     0.14500
H2566       H  0.86121893  0.05724681  0.28461786     0.14500
H2567       H  0.79599643  0.28919447  0.29652882     0.14500
H2568       H  0.85677383  0.31803823  0.27851144     0.14500
H2569       H  0.73497077  0.40406642  0.34740811     0.12700
H2570       H  0.73857357  0.34842721  0.34814076     0.12700
H2571       H  0.92674228  0.50140341  0.23682586     0.12700
H2572       H  0.92530377  0.44377661  0.23575207     0.12700
H2573       H  0.83030900  0.44842022  0.29171962     0.26000
H2574       H  0.83525661  0.40080021  0.29437605     0.26000
N2575       N  0.53282732  0.38014359  0.29492078    -0.36800
N2576       N  0.55799698  0.45221602  0.27607642    -0.57300
N2577       N  0.63110521  0.47612550  0.29339689    -0.36800
N2578       N  0.60486380  0.40501521  0.31244881    -0.57300
C2579       C  0.50244053  0.37388491  0.28500831     0.26800
C2580       C  0.52641407  0.34931803  0.30438586     0.26800
C2581       C  0.63596147  0.50709181  0.28480004     0.26800
C2582       C  0.66066656  0.48375809  0.30481909     0.26800
C2583       C  0.52891806  0.43030549  0.26430289     0.35400
C2584       C  0.57982591  0.48073213  0.26390658     0.35400
C2585       C  0.58555042  0.37311703  0.32256479     0.35400
C2586       C  0.63686114  0.42391991  0.32246070     0.35400
C2587       C  0.97597757  0.33921468  0.28933743    -0.22000
C2588       C  0.49164811  0.32314386  0.29968953    -0.22000
C2589       C  0.66828382  0.03351582  0.29137919    -0.22000
C2590       C  0.68499049  0.52001952  0.30233726    -0.22000
C2591       C  0.53319338  0.44432702  0.24475849    -0.23100
C2592       C  0.56476705  0.47603337  0.24459230    -0.23100
C2593       C  0.60524517  0.37270293  0.33904358    -0.23100
C2594       C  0.63667857  0.40391841  0.33899617    -0.23100
C2595       C  0.49920915  0.39653734  0.26995897    -0.18400
C2596       C  0.55004752  0.34456124  0.31803568    -0.18400
C2597       C  0.66562457  0.45959069  0.31810997    -0.18400
C2598       C  0.61393973  0.51041854  0.26931729    -0.18400
H2599       H  0.94816291  0.32562356  0.28492181     0.14500
H2600       H  0.97820060  0.29487844  0.30284601     0.14500
H2601       H  0.68009430  0.06185203  0.28861905     0.14500
H2602       H  0.71249474  0.03355406  0.30640880     0.14500
H2603       H  0.51679999  0.43123488  0.23145457     0.12700
H2604       H  0.57664373  0.49230829  0.23125259     0.12700
H2605       H  0.59796869  0.35289806  0.35066817     0.12700
H2606       H  0.65604546  0.41089410  0.35073060     0.12700
H2607       H  0.55662258  0.40410819  0.29501820     0.26000
H2608       H  0.60997624  0.45087607  0.29018834     0.26000
C2609       C  0.81917903  0.42187653  0.68266127     0.86300
C2610       C  0.82694484  0.39600395  0.66985305    -0.53900
C2611       C  0.86093558  0.41077385  0.66139018     0.09300
C2612       C  0.88428263  0.45107736  0.66815949     0.20200
C2613       C  0.84684789  0.43399190  0.69923864    -0.54600
C2614       C  0.88075951  0.44958916  0.69257769     0.09400
C2615       C  0.83040585  0.45497208  0.66922244    -0.54200
C2616       C  0.86418903  0.47091856  0.66096251     0.09900
H2617       H  0.80922682  0.36746605  0.67036769     0.14400
H2618       H  0.91181820  0.46398580  0.66186422     0.00200
H2619       H  0.84005017  0.43061877  0.71568726     0.14800
H2620       H  0.81336260  0.46658598  0.66815729     0.14500
C2621       C  0.58452206  0.17791803  0.68145865     0.86300
C2622       C  0.55124391  0.16902661  0.66829286    -0.53900
C2623       C  0.53272591  0.13468092  0.66035045     0.09300
C2624       C  0.54998241  0.11203010  0.66786363     0.20200
C2625       C  0.56904588  0.15076161  0.69836228    -0.54600
C2626       C  0.55172160  0.11652729  0.69220245     0.09400
C2627       C  0.60720858  0.16692365  0.66839640    -0.54200
C2628       C  0.58986714  0.13281172  0.66054543     0.09900
H2629       H  0.54103369  0.18716581  0.66706064     0.14400
H2630       H  0.53613051  0.08407185  0.66214650     0.00200
H2631       H  0.57240863  0.15817151  0.71471770     0.14800
H2632       H  0.63575629  0.18461670  0.66681515     0.14500
C2633       C  0.57847741  0.41506782  0.68055467     0.86300
C2634       C  0.60181486  0.44663392  0.66601970    -0.53900
C2635       C  0.58645308  0.46595632  0.65914202     0.09300
C2636       C  0.54744442  0.45031240  0.66800002     0.20200
C2637       C  0.56876370  0.43199915  0.69779948    -0.54600
C2638       C  0.55196812  0.44958376  0.69216917     0.09400
C2639       C  0.54312872  0.39216433  0.66894843    -0.54200
C2640       C  0.52656106  0.40985676  0.66142607     0.09900
H2641       H  0.62915276  0.45467560  0.66253969     0.14400
H2642       H  0.53463403  0.46554093  0.66271317     0.00200
H2643       H  0.57365505  0.42903527  0.71402423     0.14800
H2644       H  0.53141289  0.36347250  0.66757514     0.14500
O2645       O  0.54373337  0.00384089  0.83015508    -0.82000
C2646       C  0.93733694  0.47885195  0.77399115     0.97400
O2647       O  0.93429984  0.45474259  0.78633439    -0.71100
O2648       O  0.99154460  0.45354597  0.78088910    -0.74700
Al2649     Al  0.97040955  0.45722142  0.80500096     1.49000
C2650       C  0.52379392  0.46997849  0.77552425     0.92700
O2651       O  0.54997109  0.04945794  0.78032836    -0.80900
O2652       O  0.99724919  0.05332086  0.82919255    -0.74400
Al2653     Al  0.54496279  0.02590404  0.80523015     1.90100
O2654       O  0.01320333  0.06913307  0.78701482    -0.73500
O2655       O  0.93592657  0.00028208  0.82059079    -0.73400
O2656       O  0.95497207  0.01234579  0.77895049    -0.79000
O2657       O  0.94674995  0.45708213  0.82920242    -0.77200
O2658       O  0.99744076  0.00512924  0.80460402    -1.13400
O2659       O  0.00125296  0.45009554  0.82336482    -0.72600
C2660       C  0.52463197  0.47242979  0.83570266     0.98200
C2661       C  0.53438878  0.06581050  0.77471828     0.94600
Al2662     Al  0.97683437  0.03186502  0.80400434     1.55600
O2663       O  0.54770424  0.99093031  0.78765990    -0.77200
C2664       C  0.93251338  0.47544822  0.83350744     0.98700
C2665       C  0.52917254  0.06649366  0.83473157     0.93600
O2666       O  0.55184341  0.06518057  0.82271198    -0.82500
C2667       C  0.74985963  0.00066633  0.56723889     0.86300
C2668       C  0.72251455  0.00720507  0.57957911    -0.53900
C2669       C  0.73578407  0.04092053  0.58807205     0.09300
C2670       C  0.77584196  0.06580850  0.58147062     0.20200
C2671       C  0.76317854  0.02868821  0.55071868    -0.54600
C2672       C  0.77477132  0.06237689  0.55709583     0.09400
C2673       C  0.78194417  0.01246863  0.58119010    -0.54200
C2674       C  0.79627849  0.04619314  0.58928838     0.09900
H2675       H  0.69444733  0.48779782  0.57946389     0.14400
H2676       H  0.78775291  0.09370108  0.58720968     0.00200
H2677       H  0.76084243  0.02167611  0.53434902     0.14800
H2678       H  0.79406042  0.49521905  0.58373871     0.14500
C2679       C  0.00345285  0.26303019  0.56885942     0.86300
C2680       C  0.99512181  0.22990014  0.58207856    -0.53900
C2681       C  0.96043966  0.21025058  0.58939766     0.09300
C2682       C  0.93701519  0.22614337  0.58147237     0.20200
C2683       C  0.97721833  0.24722090  0.55161181    -0.54600
C2684       C  0.94280735  0.22845237  0.55728171     0.09400
C2685       C  0.99058167  0.28456102  0.58160178    -0.54200
C2686       C  0.95617064  0.26600264  0.58907518     0.09900
H2687       H  0.51396173  0.22063595  0.58369788     0.14400
H2688       H  0.90879693  0.21055609  0.58665622     0.00200
H2689       H  0.98536908  0.25127719  0.53535879     0.14800
H2690       H  0.50733976  0.31314009  0.58346685     0.14500
C2691       C  0.73610542  0.25320401  0.56882546     0.86300
C2692       C  0.76932668  0.27806238  0.58220129    -0.53900
C2693       C  0.78903485  0.26289376  0.58915826     0.09300
C2694       C  0.77250820  0.22332685  0.58133616     0.20200
C2695       C  0.75191571  0.24233705  0.55158247    -0.54600
C2696       C  0.77006170  0.22620678  0.55722793     0.09400
C2697       C  0.71434814  0.21919399  0.58160638    -0.54200
C2698       C  0.73286838  0.20348404  0.58907756     0.09900
H2699       H  0.77800787  0.30596641  0.58476031     0.14400
H2700       H  0.78723091  0.20991308  0.58651555     0.00200
H2701       H  0.74860987  0.24679579  0.53532513     0.14800
H2702       H  0.68580341  0.20776885  0.58376877     0.14500
O2703       O  0.87655343  0.17316608  0.42171269    -0.82000
C2704       C  0.79515932  0.20634558  0.47386019     0.97400
O2705       O  0.81934478  0.23031538  0.46262581    -0.71100
O2706       O  0.87585201  0.22828628  0.47028378    -0.74700
Al2707     Al  0.85315709  0.22542861  0.44522031     1.49000
C2708       C  0.89256718  0.21263700  0.47512299     0.92700
O2709       O  0.83225536  0.13645074  0.47328947    -0.80900
O2710       O  0.78292779  0.12962840  0.42050659    -0.74400
Al2711     Al  0.85361581  0.15471351  0.44725281     1.90100
O2712       O  0.77706571  0.11715822  0.46361488    -0.73500
O2713       O  0.77768762  0.18487764  0.42543645    -0.73400
O2714       O  0.77709134  0.17498632  0.46740851    -0.79000
O2715       O  0.83278146  0.22712260  0.41994241    -0.77200
O2716       O  0.82961762  0.17812370  0.44545041    -1.13400
O2717       O  0.89143422  0.22899354  0.42821945    -0.72600
C2718       C  0.89269234  0.20576064  0.41665942     0.98200
C2719       C  0.79952059  0.12245989  0.47775973     0.94600
Al2720     Al  0.78206168  0.15349960  0.44424959     1.55600
O2721       O  0.89334662  0.19023789  0.46284182    -0.77200
C2722       C  0.80101403  0.20889058  0.41394257     0.98700
C2723       C  0.79941409  0.11300182  0.41772376     0.93600
O2724       O  0.81996469  0.11327269  0.43167612    -0.82500
N2725       N  0.95545223  0.33613148  0.62632027    -0.36800
N2726       N  0.88448354  0.28932174  0.60752980    -0.57300
N2727       N  0.85907799  0.33705864  0.62488606    -0.36800
N2728       N  0.93030828  0.38335001  0.64379535    -0.57300
C2729       C  0.96232322  0.31210866  0.61650169     0.26800
C2730       C  0.98643695  0.36173841  0.63519513     0.26800
C2731       C  0.82820497  0.31060383  0.61624358     0.26800
C2732       C  0.85116913  0.35905311  0.63631302     0.26800
C2733       C  0.90399539  0.27672936  0.59749203     0.35400
C2734       C  0.85350152  0.27758576  0.59668336     0.35400
C2735       C  0.96292664  0.39766019  0.65329717     0.35400
C2736       C  0.91133230  0.39669394  0.65365633     0.35400
C2737       C  0.99739482  0.32156491  0.62070772    -0.22000
C2738       C  0.01315754  0.35413319  0.63017082    -0.22000
C2739       C  0.80039484  0.31550259  0.62272304    -0.22000
C2740       C  0.81491098  0.34685360  0.63369425    -0.22000
C2741       C  0.88498038  0.25711825  0.58057139    -0.23100
C2742       C  0.85420778  0.25816434  0.57989449    -0.23100
C2743       C  0.96416481  0.41976755  0.66901881    -0.23100
C2744       C  0.93227780  0.41851338  0.66948971    -0.23100
C2745       C  0.93961311  0.28434960  0.60211759    -0.18400
C2746       C  0.99112209  0.39002983  0.64906775    -0.18400
C2747       C  0.87511648  0.38866226  0.64960938    -0.18400
C2748       C  0.82454212  0.28395847  0.60134371    -0.18400
H2749       H  0.01133944  0.30727293  0.61715845     0.14500
H2750       H  0.54153680  0.36979024  0.63314731     0.14500
H2751       H  0.77218067  0.29891035  0.61960424     0.14500
H2752       H  0.79942635  0.35901946  0.63824342     0.14500
H2753       H  0.89226087  0.24413426  0.56908450     0.12700
H2754       H  0.83546603  0.24640694  0.56771005     0.12700
H2755       H  0.98480169  0.43460849  0.67999156     0.12700
H2756       H  0.92588446  0.43149775  0.68124223     0.12700
H2757       H  0.93092711  0.33465657  0.62731837     0.26000
H2758       H  0.88442039  0.34133232  0.62179563     0.26000
N2759       N  0.70922489  0.10905414  0.60805814    -0.36800
N2760       N  0.66027358  0.03637350  0.62351704    -0.57300
N2761       N  0.61388410  0.06222652  0.64108565    -0.36800
N2762       N  0.66249612  0.13414779  0.62535907    -0.57300
C2763       C  0.71864575  0.08850642  0.59634774     0.26800
C2764       C  0.72084402  0.14052882  0.59758862     0.26800
C2765       C  0.60280282  0.03120433  0.65185892     0.26800
C2766       C  0.60296286  0.08233348  0.65207314     0.26800
C2767       C  0.68390638  0.02911460  0.61354270     0.35400
C2768       C  0.63416532  0.00509743  0.63183210     0.35400
C2769       C  0.68811134  0.16553301  0.61704315     0.35400
C2770       C  0.63733317  0.14063722  0.63380582     0.35400
C2771       C  0.73454269  0.10672537  0.57854653    -0.22000
C2772       C  0.73752661  0.13937286  0.57967168    -0.22000
C2773       C  0.58585942  0.03274847  0.66962029    -0.22000
C2774       C  0.58545223  0.06387324  0.66958281    -0.22000
C2775       C  0.67299475  0.99328325  0.61628166    -0.23100
C2776       C  0.64051739  0.97785695  0.62605156    -0.23100
C2777       C  0.67999134  0.19205660  0.62151896    -0.23100
C2778       C  0.64649445  0.17564513  0.62974978    -0.23100
C2779       C  0.71274019  0.05333965  0.60031192    -0.18400
C2780       C  0.71486347  0.16947169  0.60246372    -0.18400
C2781       C  0.60936135  0.11748114  0.64763856    -0.18400
C2782       C  0.60746770  0.00145554  0.64658715    -0.18400
H2783       H  0.74013760  0.09638567  0.56510454     0.14500
H2784       H  0.74917261  0.15894747  0.56781644     0.14500
H2785       H  0.57564539  0.01432827  0.68203284     0.14500
H2786       H  0.57433211  0.07194704  0.68173021     0.14500
H2787       H  0.68637253  0.97877966  0.61201240     0.12700
H2788       H  0.62435854  0.44905390  0.62886549     0.12700
H2789       H  0.69546542  0.22034400  0.61826141     0.12700
H2790       H  0.63142087  0.18897821  0.63279845     0.12700
H2791       H  0.69731057  0.10278793  0.62266450     0.26000
H2792       H  0.62611068  0.06829158  0.62656680     0.26000
N2793       N  0.93641334  0.06617095  0.64180180    -0.36800
N2794       N  0.96244609  0.13872497  0.62476211    -0.57300
N2795       N  0.89042851  0.11588175  0.60828901    -0.36800
N2796       N  0.86470034  0.04371627  0.62578464    -0.57300
C2797       C  0.96838682  0.08507484  0.65193927     0.26800
C2798       C  0.91667112  0.03419551  0.65188925     0.26800
C2799       C  0.91105911  0.14603210  0.59697237     0.26800
C2800       C  0.85974422  0.09551857  0.59732625     0.26800
C2801       C  0.99335489  0.14456911  0.63397681     0.35400
C2802       C  0.96922249  0.17015636  0.61580606     0.35400
C2803       C  0.85727245  0.01214128  0.63468235     0.35400
C2804       C  0.83362130  0.03864305  0.61733563     0.35400
C2805       C  0.96818930  0.06453430  0.66820573    -0.22000
C2806       C  0.93676603  0.03333568  0.66805301    -0.22000
C2807       C  0.89305926  0.14384896  0.57895270    -0.22000
C2808       C  0.86160349  0.11233882  0.57900329    -0.22000
C2809       C  0.01985810  0.17935562  0.62979466    -0.23100
C2810       C  0.00406653  0.19602343  0.62029154    -0.23100
C2811       C  0.82183578  0.98702871  0.63082230    -0.23100
C2812       C  0.80641574  0.00445510  0.62193672    -0.23100
C2813       C  0.99743469  0.12061487  0.64778295    -0.18400
C2814       C  0.88050234  0.00636141  0.64798880    -0.18400
C2815       C  0.83023048  0.06155859  0.60265159    -0.18400
C2816       C  0.94615644  0.17493787  0.60171554    -0.18400
H2817       H  0.98752167  0.07083597  0.67996518     0.14500
H2818       H  0.92995076  0.01346247  0.67957194     0.14500
H2819       H  0.90189567  0.16196024  0.56634473     0.14500
H2820       H  0.84347211  0.10188211  0.56620018     0.14500
H2821       H  0.54806565  0.19238987  0.63327480     0.12700
H2822       H  0.01767672  0.22431321  0.61710899     0.12700
H2823       H  0.80675426  0.45901156  0.63462960     0.12700
H2824       H  0.77833348  0.99208059  0.61821731     0.12700
H2825       H  0.92921020  0.07394140  0.62831436     0.26000
H2826       H  0.89600050  0.11049528  0.62306803     0.26000
C2827       C  0.78314487  0.21434644  0.53942699    -0.05600
C2828       C  0.81314852  0.24147596  0.52886223    -0.33000
C2829       C  0.81634162  0.24080813  0.50730705     0.36200
C2830       C  0.78993031  0.21222023  0.49580989    -0.06000
C2831       C  0.76056366  0.18470164  0.50630870    -0.32900
C2832       C  0.75677561  0.18562148  0.52766986     0.36100
H2833       H  0.83189879  0.26575601  0.53685796     0.16500
O2834       O  0.84490780  0.26875047  0.49766599    -0.60400
H2835       H  0.73946690  0.16252512  0.49782232     0.16500
O2836       O  0.72408961  0.16222404  0.53620397    -0.60500
H2837       H  0.72130553  0.13811221  0.53450469     0.43500
H2838       H  0.83609686  0.28480843  0.49306842     0.43400
C2839       C  0.90704202  0.21727944  0.49624764    -0.05600
C2840       C  0.91188050  0.19034685  0.50494769    -0.33000
C2841       C  0.91785366  0.19009343  0.52619223     0.36200
C2842       C  0.91821777  0.21662060  0.53945389    -0.06000
C2843       C  0.91369428  0.24363376  0.53042106    -0.32900
C2844       C  0.90938273  0.24472489  0.50912092     0.36100
H2845       H  0.91047085  0.16901988  0.49534625     0.16500
O2846       O  0.92705474  0.16599423  0.53341135    -0.60400
H2847       H  0.91875455  0.26700971  0.53933370     0.16500
O2848       O  0.90943902  0.27389849  0.50087916    -0.60500
H2849       H  0.93503137  0.29210442  0.49906039     0.43500
H2850       H  0.95331785  0.17757652  0.53147847     0.43400
C2851       C  0.77538572  0.08652615  0.54031384    -0.05600
C2852       C  0.80578763  0.11928465  0.53613854    -0.33000
C2853       C  0.81145503  0.13326895  0.51605387     0.36200
C2854       C  0.78834100  0.11319571  0.49971502    -0.06000
C2855       C  0.75470247  0.08479403  0.50487495    -0.32900
C2856       C  0.74751584  0.07235187  0.52531280     0.36100
H2857       H  0.82564339  0.13343296  0.54792021     0.16500
O2858       O  0.83930184  0.16680645  0.51252395    -0.60400
H2859       H  0.73471820  0.07113428  0.49302020     0.16500
O2860       O  0.71413570  0.04454463  0.53035644    -0.60500
H2861       H  0.71009062  0.02411019  0.52140268     0.43500
H2862       H  0.83120624  0.18318394  0.51780972     0.43400
C2863       C  0.53901808  0.46186580  0.70999795    -0.05600
C2864       C  0.56527355  0.49083866  0.72167636    -0.33000
C2865       C  0.56198672  0.49292198  0.74321384     0.36200
C2866       C  0.53174605  0.46629294  0.75358937    -0.06000
C2867       C  0.50532937  0.43791086  0.74198469    -0.32900
C2868       C  0.50872465  0.43535895  0.72065679     0.36100
H2869       H  0.59055358  0.50972899  0.71462958     0.16500
O2870       O  0.58905695  0.52041655  0.75401904    -0.60400
H2871       H  0.98230071  0.41631933  0.74967104     0.16500
O2872       O  0.48452072  0.40430287  0.71092445    -0.60500
H2873       H  0.99323916  0.38728786  0.71306802     0.43500
H2874       H  0.60745061  0.51334848  0.75582840     0.43400
C2875       C  0.54100826  0.09095065  0.70967073    -0.05600
C2876       C  0.56945351  0.09021654  0.71979573    -0.33000
C2877       C  0.56861713  0.08411941  0.74116706     0.36200
C2878       C  0.53820887  0.07720522  0.75285544    -0.06000
C2879       C  0.50937071  0.07686897  0.74287565    -0.32900
C2880       C  0.51104189  0.08479845  0.72177230     0.36100
H2881       H  0.59469776  0.09962758  0.71176775     0.16500
O2882       O  0.59899582  0.08932394  0.75110320    -0.60400
H2883       H  0.48596561  0.07205080  0.75168177     0.16500
O2884       O  0.48547529  0.09127215  0.71387318    -0.60500
H2885       H  0.49338894  0.11649919  0.71747960     0.43500
H2886       H  0.61219123  0.08211874  0.74140816     0.43400
C2887       C  0.90713489  0.46271367  0.70963878    -0.05600
C2888       C  0.91204226  0.43708338  0.72036302    -0.33000
C2889       C  0.92025139  0.44089723  0.74153001     0.36200
C2890       C  0.92428576  0.47097376  0.75242572    -0.06000
C2891       C  0.91991704  0.49668983  0.74175098    -0.32900
C2892       C  0.91091994  0.49257739  0.72082035     0.36100
H2893       H  0.90551779  0.41195775  0.71300264     0.16500
O2894       O  0.92321547  0.41456121  0.75145728    -0.60400
H2895       H  0.92411727  0.02147290  0.74904240     0.16500
O2896       O  0.90061929  0.01517273  0.71170442    -0.60500
H2897       H  0.92163675  0.03961787  0.71180908     0.43500
H2898       H  0.89879237  0.39757007  0.75655314     0.43400
C2899       C  0.95193798  0.05065916  0.20813063    -0.05600
C2900       C  0.98076932  0.07623076  0.19620480    -0.33000
C2901       C  0.98284301  0.07147571  0.17492791     0.36200
C2902       C  0.95649119  0.04012945  0.16523259    -0.06000
C2903       C  0.92910278  0.01351259  0.17737654    -0.32900
C2904       C  0.92593658  0.01905305  0.19833356     0.36100
H2905       H  0.99928102  0.10213333  0.20275967     0.16500
O2906       O  0.01007379  0.09821370  0.16373132    -0.60400
H2907       H  0.90854393  0.98897311  0.17037147     0.16500
O2908       O  0.89467673  0.99577494  0.20828893    -0.60500
H2909       H  0.87796735  0.00472775  0.20555129     0.43500
H2910       H  0.50160335  0.11527215  0.16064228     0.43400
C2911       C  0.94493133  0.42213244  0.20729391    -0.05600
C2912       C  0.91555804  0.40700677  0.19346104    -0.33000
C2913       C  0.92045776  0.41577350  0.17242034     0.36200
C2914       C  0.95427870  0.44185836  0.16536145    -0.06000
C2915       C  0.98041113  0.46286963  0.18012216    -0.32900
C2916       C  0.97583853  0.45320697  0.20110855     0.36100
H2917       H  0.89025959  0.38446951  0.19833798     0.16500
O2918       O  0.89299750  0.39680422  0.15883832    -0.60400
H2919       H  0.00495036  0.48607698  0.17524953     0.16500
O2920       O  0.00136412  0.47391377  0.21531174    -0.60500
H2921       H  0.02418330  0.47735029  0.20962840     0.43500
H2922       H  0.89598308  0.37652926  0.15416655     0.43400
C2923       C  0.58796692  0.04986983  0.20561744    -0.05600
C2924       C  0.58602611  0.02163960  0.19347361    -0.33000
C2925       C  0.57626152  0.01753812  0.17256078     0.36200
C2926       C  0.56869693  0.04226494  0.16314054    -0.06000
C2927       C  0.57186655  0.07109565  0.17496631    -0.32900
C2928       C  0.58234435  0.07558939  0.19564623     0.36100
H2929       H  0.59458029  0.00398891  0.19974833     0.16500
O2930       O  0.57360538  0.98893429  0.16168953    -0.60400
H2931       H  0.56756246  0.09129347  0.16792119     0.16500
O2932       O  0.59127229  0.10746692  0.20515119    -0.60500
H2933       H  0.61625957  0.12425601  0.20080905     0.43500
H2934       H  0.59784083  0.99733447  0.15590128     0.43400
C2935       C  0.71177230  0.41837415  0.52191630    -0.05600
C2936       C  0.74851045  0.43789391  0.52578438    -0.33000
C2937       C  0.76150452  0.46000914  0.54319576     0.36200
C2938       C  0.73740900  0.46377358  0.55666987    -0.06000
C2939       C  0.70080863  0.43864237  0.55496487    -0.32900
C2940       C  0.68788590  0.41622280  0.53765135     0.36100
H2941       H  0.76742533  0.43792967  0.51466255     0.16500
O2942       O  0.79785484  0.48122125  0.54546748    -0.60400
H2943       H  0.68151342  0.43771385  0.56599413     0.16500
O2944       O  0.65181635  0.39278237  0.53615354    -0.60500
H2945       H  0.64133437  0.40726736  0.53128763     0.43500
H2946       H  0.80589785  0.49914841  0.53420122     0.43400
C2947       C  0.71420719  0.26728714  0.55798828    -0.05600
C2948       C  0.73019811  0.30408203  0.55405605    -0.33000
C2949       C  0.72302834  0.31653859  0.53579284     0.36200
C2950       C  0.69814999  0.29220879  0.52132605    -0.06000
C2951       C  0.67804651  0.25614573  0.52676912    -0.32900
C2952       C  0.68559966  0.24350457  0.54481227     0.36100
H2953       H  0.75123126  0.32347586  0.56380090     0.16500
O2954       O  0.74182985  0.35257730  0.53193695    -0.60400
H2955       H  0.65770214  0.23710101  0.51640936     0.16500
O2956       O  0.66810303  0.20718278  0.54781829    -0.60500
H2957       H  0.67898184  0.19777926  0.53783700     0.43500
H2958       H  0.76492160  0.35716489  0.52588984     0.43400
C2959       C  0.58321215  0.30314077  0.52233267    -0.05600
C2960       C  0.56680707  0.32282577  0.52785786    -0.33000
C2961       C  0.54553433  0.31432177  0.54558399     0.36200
C2962       C  0.53979356  0.28496694  0.55824582    -0.06000
C2963       C  0.56084520  0.26912456  0.55422127    -0.32900
C2964       C  0.58236558  0.27800321  0.53652669     0.36100
H2965       H  0.56861433  0.34362733  0.51777674     0.16500
O2966       O  0.52699180  0.33206919  0.54879621    -0.60400
H2967       H  0.55872902  0.24756573  0.56355995     0.16500
O2968       O  0.60090684  0.26041497  0.53281302    -0.60500
H2969       H  0.62427021  0.27513877  0.53973955     0.43500
H2970       H  0.50637589  0.32090407  0.53919130     0.43400
C2971       C  0.79422750  0.09380095  0.39788300    -0.05600
C2972       C  0.77212803  0.09600947  0.38273927    -0.33000
C2973       C  0.76308035  0.07521195  0.36477431     0.36200
C2974       C  0.77476039  0.05020451  0.36219652    -0.06000
C2975       C  0.80225174  0.05334688  0.37540644    -0.32900
C2976       C  0.81175848  0.07464739  0.39319724     0.36100
H2977       H  0.76085103  0.11324980  0.38501944     0.16500
O2978       O  0.74201991  0.07911420  0.35051408    -0.60400
H2979       H  0.81308704  0.03567323  0.37343374     0.16500
O2980       O  0.83639116  0.07457607  0.40644445    -0.60500
H2981       H  0.85964983  0.09518024  0.40211497     0.43500
H2982       H  0.75814019  0.09178692  0.33869721     0.43400
C2983       C  0.70879114  0.42705961  0.37764931    -0.05600
C2984       C  0.67922543  0.42281059  0.38935661    -0.33000
C2985       C  0.67642534  0.41550891  0.41056405     0.36200
C2986       C  0.70270303  0.41094784  0.42046003    -0.06000
C2987       C  0.73152597  0.41391672  0.40875973    -0.32900
C2988       C  0.73527265  0.42277146  0.38780729     0.36100
H2989       H  0.66056028  0.42982911  0.38281562     0.16500
O2990       O  0.64850107  0.41409817  0.42154108    -0.60400
H2991       H  0.75253497  0.41131249  0.41616656     0.16500
O2992       O  0.76782995  0.43377060  0.37849331    -0.60500
H2993       H  0.77164280  0.41298586  0.37898664     0.43500
H2994       H  0.65609808  0.43930125  0.42500193     0.43400
C2995       C  0.79085255  0.21510715  0.39318479    -0.05600
C2996       C  0.75615700  0.19237366  0.38605076    -0.33000
C2997       C  0.74384446  0.20015136  0.36803524     0.36200
C2998       C  0.76663017  0.23146380  0.35643852    -0.06000
C2999       C  0.80311424  0.25038561  0.36184173    -0.32900
C3000       C  0.81514863  0.24268769  0.38008395     0.36100
H3001       H  0.73745908  0.16955789  0.39516512     0.16500
O3002       O  0.70821079  0.17924821  0.36354350    -0.60400
H3003       H  0.82216413  0.27373837  0.35340649     0.16500
O3004       O  0.85044235  0.26342943  0.38530936    -0.60500
H3005       H  0.85254468  0.28544042  0.39154526     0.43500
H3006       H  0.69557250  0.18736788  0.37308186     0.43400
C3007       C  0.69596904  0.29905013  0.41924372    -0.05600
C3008       C  0.72698161  0.32612105  0.40977856    -0.33000
C3009       C  0.73352187  0.32434108  0.38863244     0.36200
C3010       C  0.70811301  0.29590879  0.37620256    -0.06000
C3011       C  0.67671497  0.26943960  0.38577971    -0.32900
C3012       C  0.67072100  0.27060725  0.40693914     0.36100
H3013       H  0.74672845  0.34830178  0.41888787     0.16500
O3014       O  0.76647581  0.34846441  0.38076107    -0.60400
H3015       H  0.65866524  0.24522276  0.37746832     0.16500
O3016       O  0.64092952  0.24247088  0.41561938    -0.60500
H3017       H  0.64927921  0.22682055  0.42154366     0.43500
H3018       H  0.78198405  0.33809904  0.38349458     0.43400
C3019       C  0.95503190  0.23773267  0.36014035    -0.05600
C3020       C  0.94757321  0.26165894  0.37122119    -0.33000
C3021       C  0.92815486  0.25200605  0.38967237     0.36200
C3022       C  0.91281445  0.21674361  0.39690647    -0.06000
C3023       C  0.91651828  0.19157593  0.38493548    -0.32900
C3024       C  0.93841992  0.20189126  0.36731043     0.36100
H3025       H  0.96129194  0.28983488  0.36762221     0.16500
O3026       O  0.92781058  0.27829064  0.40160564    -0.60400
H3027       H  0.90461736  0.16411984  0.39008431     0.16500
O3028       O  0.94560915  0.17720866  0.35855571    -0.60500
H3029       H  0.96407125  0.17698412  0.36751402     0.43500
H3030       H  0.91676710  0.28904074  0.39299850     0.43400
C3031       C  0.58938714  0.30632288  0.42103317    -0.05600
C3032       C  0.58909791  0.27782561  0.41045582    -0.33000
C3033       C  0.58305061  0.27339707  0.38907554     0.36200
C3034       C  0.57775239  0.29822816  0.37759599    -0.06000
C3035       C  0.57847904  0.32698177  0.38844378    -0.32900
C3036       C  0.58347963  0.33070686  0.40982615     0.36100
H3037       H  0.59278786  0.25840778  0.41890119     0.16500
O3038       O  0.57862643  0.24264505  0.38000969    -0.60400
H3039       H  0.57022384  0.34396492  0.38088005     0.16500
O3040       O  0.58035196  0.35715474  0.41978964    -0.60500
H3041       H  0.55619482  0.34497112  0.42618920     0.43500
H3042       H  0.55329287  0.22431852  0.38256733     0.43400
C3043       C  0.86268343  0.12782355  0.18881918    -0.05600
C3044       C  0.88517506  0.15332071  0.20348130    -0.33000
C3045       C  0.89539466  0.14299759  0.22157474     0.36200
C3046       C  0.88361927  0.10645873  0.22493835    -0.06000
C3047       C  0.85538271  0.08119108  0.21237264    -0.32900
C3048       C  0.84522816  0.09154089  0.19438533     0.36100
H3049       H  0.89605361  0.18159986  0.20060857     0.16500
O3050       O  0.91637908  0.16876167  0.23568044    -0.60400
H3051       H  0.84457083  0.05282557  0.21481953     0.16500
O3052       O  0.82047164  0.06562731  0.18160729    -0.60500
H3053       H  0.79731688  0.06362789  0.18557014     0.43500
H3054       H  0.93895982  0.18508456  0.22829913     0.43400
C3055       C  0.88153625  0.25640558  0.18814536    -0.05600
C3056       C  0.85663686  0.25364735  0.20322565    -0.33000
C3057       C  0.86760791  0.27503070  0.22107810     0.36200
C3058       C  0.90420474  0.30027258  0.22375020    -0.06000
C3059       C  0.92908692  0.29677677  0.21098153    -0.32900
C3060       C  0.91807786  0.27574055  0.19306287     0.36100
H3061       H  0.82829224  0.23574295  0.20087880     0.16500
O3062       O  0.84250187  0.27038071  0.23571641    -0.60400
H3063       H  0.95752179  0.31444947  0.21318216     0.16500
O3064       O  0.94346197  0.27684690  0.17973398    -0.60500
H3065       H  0.94695574  0.25680270  0.18401658     0.43500
H3066       H  0.82475444  0.27469273  0.22855392     0.43400
C3067       C  0.75189803  0.14062366  0.18979371    -0.05600
C3068       C  0.74871186  0.11171153  0.20132806    -0.33000
C3069       C  0.72751123  0.09985454  0.21911550     0.36200
C3070       C  0.70953129  0.11772347  0.22639321    -0.06000
C3071       C  0.71772225  0.15013628  0.21635001    -0.32900
C3072       C  0.73835037  0.16139390  0.19826759     0.36100
H3073       H  0.76064862  0.09630170  0.19581039     0.16500
O3074       O  0.72228448  0.06884327  0.22792433    -0.60400
H3075       H  0.70456532  0.16488924  0.22061372     0.16500
O3076       O  0.74242685  0.19105821  0.18817809    -0.60500
H3077       H  0.76157610  0.21173303  0.19577652     0.43500
H3078       H  0.70387618  0.04928424  0.21928795     0.43400
C3079       C  0.93190055  0.06646490  0.02570980    -0.05600
C3080       C  0.90882521  0.03333566  0.03535861    -0.33000
C3081       C  0.91784673  0.02334853  0.05391390     0.36200
C3082       C  0.95089951  0.04604812  0.06327645    -0.06000
C3083       C  0.97578770  0.07674745  0.05260756    -0.32900
C3084       C  0.96669247  0.08729258  0.03430582     0.36100
H3085       H  0.88172081  0.01654331  0.03011628     0.16500
O3086       O  0.89315517  0.99223453  0.06332633    -0.60400
H3087       H  0.00209303  0.09403960  0.05904187     0.16500
O3088       O  0.99147502  0.11950181  0.02606494    -0.60500
H3089       H  0.98976026  0.13786297  0.03450906     0.43500
H3090       H  0.89249512  0.97282926  0.05473938     0.43400
C3091       C  0.87220391  0.12994492  0.04368006    -0.05600
C3092       C  0.84109852  0.10360936  0.05351659    -0.33000
C3093       C  0.83593473  0.10488130  0.07473139     0.36200
C3094       C  0.86173350  0.13330940  0.08678015    -0.06000
C3095       C  0.89248877  0.16022526  0.07709359    -0.32900
C3096       C  0.89804268  0.15863230  0.05580434     0.36100
H3097       H  0.82279196  0.07930013  0.04537006     0.16500
O3098       O  0.80632729  0.07695504  0.08371261    -0.60400
H3099       H  0.91266933  0.18224218  0.08610119     0.16500
O3100       O  0.93097615  0.18215320  0.04761953    -0.60500
H3101       H  0.93250671  0.20583825  0.04791958     0.43500
H3102       H  0.81441372  0.06053487  0.08874185     0.43400
C3103       C  0.92977944  0.38142760  0.02630241    -0.05600
C3104       C  0.96339429  0.39275772  0.03564758    -0.33000
C3105       C  0.97288165  0.41154519  0.05437693     0.36200
C3106       C  0.94975029  0.42143745  0.06377428    -0.06000
C3107       C  0.91808680  0.41355337  0.05368516    -0.32900
C3108       C  0.90767820  0.39350477  0.03550173     0.36100
H3109       H  0.98104798  0.38362146  0.03008882     0.16500
O3110       O  0.00438917  0.41903355  0.06361175    -0.60400
H3111       H  0.89967038  0.42064979  0.06074135     0.16500
O3112       O  0.87393849  0.38269170  0.02840302    -0.60500
H3113       H  0.85767303  0.36173369  0.03698959     0.43500
H3114       H  0.49845855  0.39769774  0.07218805     0.43400
C3115       C  0.86953948  0.24496953  0.08614702    -0.05600
C3116       C  0.84070953  0.24577331  0.07693404    -0.33000
C3117       C  0.84091933  0.25275354  0.05577037     0.36200
C3118       C  0.87010833  0.25834216  0.04304475    -0.06000
C3119       C  0.89857485  0.25660342  0.05242481    -0.32900
C3120       C  0.89854657  0.25021168  0.07360760     0.36100
H3121       H  0.81834315  0.24214627  0.08634104     0.16500
O3122       O  0.81445669  0.25829392  0.04827708    -0.60400
H3123       H  0.92321723  0.26491067  0.04395301     0.16500
O3124       O  0.92824048  0.25164570  0.08212101    -0.60500
H3125       H  0.94326724  0.27669568  0.08692748     0.43500
H3126       H  0.82270086  0.28388270  0.05098768     0.43400
C3127       C  0.61705561  0.07368561  0.02844658    -0.05600
C3128       C  0.59346157  0.03669836  0.03030425    -0.33000
C3129       C  0.57041052  0.02304256  0.04738147     0.36200
C3130       C  0.57102312  0.04641641  0.06296039    -0.06000
C3131       C  0.58980665  0.08318442  0.05919485    -0.32900
C3132       C  0.61227186  0.09695593  0.04208235     0.36100
H3133       H  0.59418692  0.01787134  0.01954403     0.16500
O3134       O  0.54859530  0.98679281  0.04903052    -0.60400
H3135       H  0.58894719  0.10178786  0.07019704     0.16500
O3136       O  0.63278026  0.13347259  0.04030364    -0.60500
H3137       H  0.65074067  0.14139620  0.05154116     0.43500
H3138       H  0.52630450  0.98154603  0.04178899     0.43400
C3139       C  0.75620544  0.14353111  0.08758691    -0.05600
C3140       C  0.75319383  0.11328146  0.07757387    -0.33000
C3141       C  0.74508857  0.10716370  0.05642587     0.36200
C3142       C  0.74091686  0.13217580  0.04437835    -0.06000
C3143       C  0.74467258  0.16284332  0.05455882    -0.32900
C3144       C  0.75155721  0.16827224  0.07582161     0.36100
H3145       H  0.75620400  0.09367543  0.08631339     0.16500
O3146       O  0.73746680  0.07471195  0.04827331    -0.60400
H3147       H  0.73765768  0.18050356  0.04666102     0.16500
O3148       O  0.75145871  0.19683545  0.08515742    -0.60500
H3149       H  0.72692598  0.18719086  0.09079517     0.43500
H3150       H  0.71140829  0.05874834  0.05040041     0.43400
C3151       C  0.78358046  0.40888619  0.69385002    -0.05600
C3152       C  0.75911986  0.37225159  0.69613421    -0.33000
C3153       C  0.73597686  0.35996305  0.71317863     0.36200
C3154       C  0.73719440  0.38447977  0.72824195    -0.06000
C3155       C  0.75679838  0.42095470  0.72400118    -0.32900
C3156       C  0.77963824  0.43336315  0.70696014     0.36100
H3157       H  0.75945213  0.35259971  0.68588914     0.16500
O3158       O  0.71394309  0.32381182  0.71554920    -0.60400
H3159       H  0.75671642  0.44024729  0.73477729     0.16500
O3160       O  0.80239992  0.46955761  0.70544512    -0.60500
H3161       H  0.78769006  0.47924778  0.69980081     0.43500
H3162       H  0.69228835  0.31788361  0.70739250     0.43400
C3163       C  0.62345663  0.25848581  0.72768402    -0.05600
C3164       C  0.64323471  0.24191072  0.72271470    -0.33000
C3165       C  0.63468278  0.21973603  0.70539623     0.36200
C3166       C  0.60584256  0.21405595  0.69233193    -0.06000
C3167       C  0.59065194  0.23587118  0.69539034    -0.32900
C3168       C  0.59865146  0.25728830  0.71309325     0.36100
H3169       H  0.66377750  0.24391339  0.73308009     0.16500
O3170       O  0.65162100  0.20020229  0.70301300    -0.60400
H3171       H  0.56990175  0.23409870  0.68543726     0.16500
O3172       O  0.58064067  0.27549546  0.71637550    -0.60500
H3173       H  0.55755043  0.25782324  0.72276885     0.43500
H3174       H  0.64113203  0.18120041  0.71368526     0.43400
C3175       C  0.59403478  0.39434815  0.69121459    -0.05600
C3176       C  0.56918679  0.36360232  0.70243033    -0.33000
C3177       C  0.57802387  0.35448321  0.72134165     0.36200
C3178       C  0.61287921  0.37485440  0.72898623    -0.06000
C3179       C  0.63895230  0.40203681  0.71654431    -0.32900
C3180       C  0.62994852  0.41231096  0.69819050     0.36100
H3181       H  0.54117423  0.34941055  0.69842222     0.16500
O3182       O  0.55155367  0.32798488  0.73312915    -0.60400
H3183       H  0.66650868  0.41720814  0.72159880     0.16500
O3184       O  0.65637875  0.44166272  0.68825865    -0.60500
H3185       H  0.65949627  0.46258109  0.69641956     0.43500
H3186       H  0.54194422  0.30582099  0.72473007     0.43400
C3187       C  0.56273612  0.12652063  0.89138587    -0.05600
C3188       C  0.52603746  0.10478635  0.88726933    -0.33000
C3189       C  0.51445329  0.08351535  0.86943784     0.36200
C3190       C  0.53972008  0.08345651  0.85542236    -0.06000
C3191       C  0.57541495  0.09941477  0.86158235    -0.32900
C3192       C  0.58705046  0.12045075  0.87945882     0.36100
H3193       H  0.50598966  0.10626277  0.89655383     0.16500
O3194       O  0.47851743  0.06494295  0.86523665    -0.60400
H3195       H  0.59499996  0.09764840  0.85183918     0.16500
O3196       O  0.62303753  0.13859789  0.88352478    -0.60500
H3197       H  0.63374185  0.15877025  0.87359521     0.43500
H3198       H  0.46849425  0.04359679  0.87429446     0.43400
C3199       C  0.62463046  0.26440375  0.82925390    -0.05600
C3200       C  0.65200242  0.26418038  0.84074685    -0.33000
C3201       C  0.64782913  0.25593610  0.86180463     0.36200
C3202       C  0.61635699  0.24924383  0.87230524    -0.06000
C3203       C  0.58912727  0.25009212  0.86079941    -0.32900
C3204       C  0.59278877  0.25686024  0.83946056     0.36100
H3205       H  0.67640961  0.26883118  0.83316833     0.16500
O3206       O  0.67184022  0.24848962  0.87108010    -0.60400
H3207       H  0.56324880  0.24142225  0.86785988     0.16500
O3208       O  0.56463450  0.25489031  0.82869722    -0.60500
H3209       H  0.55099296  0.22991092  0.82356259     0.43500
H3210       H  0.69488717  0.27129041  0.87112586     0.43400
C3211       C  0.86855283  0.45095696  0.88868996    -0.05600
C3212       C  0.89179275  0.43735981  0.88608634    -0.33000
C3213       C  0.91368595  0.44605144  0.86855857     0.36200
C3214       C  0.91309261  0.46919855  0.85337506    -0.06000
C3215       C  0.89452287  0.48727209  0.85766865    -0.32900
C3216       C  0.87271987  0.47878210  0.87519084     0.36100
H3217       H  0.89134354  0.41778070  0.89653876     0.16500
O3218       O  0.93411793  0.43017134  0.86600617    -0.60400
H3219       H  0.89518808  0.50665969  0.84684514     0.16500
O3220       O  0.85222248  0.49471438  0.87755946    -0.60500
H3221       H  0.83347694  0.48403492  0.86676177     0.43500
H3222       H  0.95749042  0.44707888  0.87232324     0.43400
C3223       C  0.74529754  0.38301990  0.87291288    -0.05600
C3224       C  0.74133552  0.40965619  0.86290581    -0.33000
C3225       C  0.73494768  0.40821815  0.84161138     0.36200
C3226       C  0.73088864  0.37889721  0.82977868    -0.06000
C3227       C  0.73401691  0.35179387  0.83959786    -0.32900
C3228       C  0.74220228  0.35419804  0.86072532     0.36100
H3229       H  0.74835480  0.43441420  0.87090578     0.16500
O3230       O  0.73663373  0.43734923  0.83197158    -0.60400
H3231       H  0.73137255  0.32923879  0.83072729     0.16500
O3232       O  0.75178881  0.33083504  0.86866463    -0.60500
H3233       H  0.77735231  0.34086868  0.86493673     0.43500
H3234       H  0.72256773  0.44500048  0.84058707     0.43400
C3235       C  0.54710808  0.43665036  0.89265870    -0.05600
C3236       C  0.56236854  0.47346679  0.88893344    -0.33000
C3237       C  0.55414803  0.48571354  0.87092821     0.36200
C3238       C  0.52998147  0.46102863  0.85633213    -0.06000
C3239       C  0.51035334  0.42497158  0.86178690    -0.32900
C3240       C  0.51804477  0.41269903  0.87986336     0.36100
H3241       H  0.58325568  0.49304499  0.89868558     0.16500
O3242       O  0.57100278  0.52185496  0.86748129    -0.60400
H3243       H  0.49029357  0.40564845  0.85140423     0.16500
O3244       O  0.50125742  0.37641859  0.88271046    -0.60500
H3245       H  0.47785607  0.36992341  0.88911900     0.43500
H3246       H  0.59432971  0.52806311  0.86107011     0.43400
C3247       C  0.61725281  0.37078134  0.83051628    -0.05600
C3248       C  0.64370882  0.40236404  0.83970183    -0.33000
C3249       C  0.64284060  0.40856040  0.86094609     0.36200
C3250       C  0.61542233  0.38254101  0.87366905    -0.06000
C3251       C  0.58909049  0.35086254  0.86424768    -0.32900
C3252       C  0.58960113  0.34508842  0.84302565     0.36100
H3253       H  0.66454418  0.42285301  0.83023057     0.16500
O3254       O  0.66640585  0.44184862  0.86864323    -0.60400
H3255       H  0.56512816  0.33254716  0.87267866     0.16500
O3256       O  0.56137595  0.31530011  0.83445910    -0.60500
H3257       H  0.54276783  0.32190008  0.83205568     0.43500
H3258       H  0.65550272  0.45683203  0.86574278     0.43400
C3259       C  0.56820003  0.92190721  0.90276330     0.86300
C3260       C  0.60160737  0.94693768  0.91591803    -0.53900
C3261       C  0.62121190  0.93183451  0.92309075     0.09300
C3262       C  0.60472057  0.89220340  0.91520455     0.20200
C3263       C  0.58369882  0.91078665  0.88541514    -0.54600
C3264       C  0.60225832  0.89503302  0.89105414     0.09400
C3265       C  0.54661847  0.88802124  0.91559647    -0.54200
C3266       C  0.56496699  0.87198842  0.92273980     0.09900
H3267       H  0.61080048  0.97506205  0.91779588     0.14400
H3268       H  0.61970203  0.87913603  0.92049120     0.00200
H3269       H  0.57968235  0.91456519  0.86916942     0.14800
H3270       H  0.51812169  0.87666722  0.91790886     0.14500
C3271       C  0.83268437  0.92998008  0.89946030     0.86300
C3272       C  0.82464230  0.89643676  0.91229770    -0.53900
C3273       C  0.79059367  0.87743928  0.92073835     0.09300
C3274       C  0.76738320  0.89436584  0.91384496     0.20200
C3275       C  0.80496187  0.91425988  0.88290263    -0.54600
C3276       C  0.77103633  0.89611973  0.88946223     0.09400
C3277       C  0.82166914  0.95220937  0.91300713    -0.54200
C3278       C  0.78778585  0.93432305  0.92120504     0.09900
H3279       H  0.84252873  0.88582473  0.91218117     0.14400
H3280       H  0.73968559  0.88002406  0.91993743     0.00200
H3281       H  0.81175413  0.91732020  0.86644964     0.14800
H3282       H  0.83909685  0.98082753  0.91473364     0.14500
C3283       C  0.57697228  0.66359486  0.90136691     0.86300
C3284       C  0.55082315  0.67228897  0.91313950    -0.53900
C3285       C  0.56529485  0.70667136  0.92075236     0.09300
C3286       C  0.60542978  0.72988418  0.91398313     0.20200
C3287       C  0.58997624  0.69011851  0.88403499    -0.54600
C3288       C  0.60476406  0.72452125  0.88977824     0.09400
C3289       C  0.60968094  0.67605278  0.91535190    -0.54200
C3290       C  0.62532014  0.71069397  0.92247110     0.09900
H3291       H  0.52236259  0.65428998  0.91316086     0.14400
H3292       H  0.61754796  0.75781882  0.91949959     0.00200
H3293       H  0.58727732  0.68213363  0.86779352     0.14800
H3294       H  0.62087164  0.65896702  0.91817974     0.14500
O3295       O  0.65437612  0.88561451  0.75397865    -0.82000
C3296       C  0.63218914  0.77718206  0.80735333     0.97400
O3297       O  0.60783525  0.77360639  0.79503119    -0.71100
O3298       O  0.60488396  0.82974762  0.80288210    -0.74700
Al3299     Al  0.60891789  0.81072236  0.77779621     1.49000
C3300       C  0.62008133  0.86186476  0.80842852     0.92700
O3301       O  0.69986384  0.88883092  0.80266281    -0.80900
O3302       O  0.70476898  0.84018207  0.75243933    -0.74400
Al3303     Al  0.67640838  0.88533580  0.77824328     1.90100
O3304       O  0.72068105  0.85338635  0.79489511    -0.73500
O3305       O  0.65210576  0.77826663  0.75998241    -0.73400
O3306       O  0.66432807  0.79440989  0.80190152    -0.79000
O3307       O  0.60945354  0.78947660  0.75253656    -0.77200
O3308       O  0.65624917  0.83802364  0.77776379    -1.13400
O3309       O  0.60031411  0.84230543  0.76090724    -0.72600
C3310       C  0.62218954  0.86687996  0.74902923     0.98200
C3311       C  0.71728866  0.87404987  0.80758338     0.94600
Al3312     Al  0.68350640  0.81796481  0.77727675     1.55600
O3313       O  0.64094317  0.88626687  0.79611426    -0.77200
C3314       C  0.62848219  0.77617238  0.74762522     0.98700
C3315       C  0.71796706  0.87249391  0.74783186     0.93600
O3316       O  0.71596793  0.89404591  0.76045770    -0.82500
N3317       N  0.79033326  0.50560935  0.95932901    -0.36800
N3318       N  0.71713195  0.95823175  0.94086217    -0.57300
N3319       N  0.69315703  0.50607686  0.95933449    -0.36800
N3320       N  0.76541578  0.55259999  0.97764845    -0.57300
C3321       C  0.79559934  0.98062143  0.94891810     0.26800
C3322       C  0.82119162  0.53025911  0.96878105     0.26800
C3323       C  0.66135882  0.98057277  0.94983445     0.26800
C3324       C  0.68648359  0.52960400  0.96999143     0.26800
C3325       C  0.73663093  0.94623128  0.93022695     0.35400
C3326       C  0.68571415  0.94641917  0.93039283     0.35400
C3327       C  0.79763708  0.56579385  0.98748945     0.35400
C3328       C  0.74670095  0.56628064  0.98752715     0.35400
C3329       C  0.83013673  0.98848165  0.95335096    -0.22000
C3330       C  0.84763760  0.52232177  0.96358659    -0.22000
C3331       C  0.63485997  0.98833056  0.95516534    -0.22000
C3332       C  0.65096357  0.51959107  0.96648099    -0.22000
C3333       C  0.71728212  0.92711583  0.91329332    -0.23100
C3334       C  0.68621892  0.92758072  0.91324840    -0.23100
C3335       C  0.79860211  0.58734269  0.00351195    -0.23100
C3336       C  0.76749060  0.58773886  0.00349811    -0.23100
C3337       C  0.77228547  0.95342701  0.93444616    -0.18400
C3338       C  0.82587872  0.55806683  0.98309323    -0.18400
C3339       C  0.71065230  0.55863918  0.98351658    -0.18400
C3340       C  0.65690694  0.95303183  0.93525769    -0.18400
H3341       H  0.84340895  0.97381533  0.94907315     0.14500
H3342       H  0.87588113  0.53730743  0.96690140     0.14500
H3343       H  0.60667048  0.97338000  0.95172201     0.14500
H3344       H  0.63671818  0.53326673  0.97070058     0.14500
H3345       H  0.72463661  0.91498742  0.90136722     0.12700
H3346       H  0.66739706  0.91629565  0.90104346     0.12700
H3347       H  0.81863398  0.60094633  0.01488993     0.12700
H3348       H  0.76143335  0.60163249  0.01496651     0.12700
H3349       H  0.76608507  0.50476080  0.96011881     0.26000
H3350       H  0.71782506  0.50801195  0.95770378     0.26000
C3351       C  0.65329075  0.58948528  0.01670800     0.86300
C3352       C  0.66234957  0.56441336  0.00413579    -0.53900
C3353       C  0.69633351  0.58014294  0.99572957     0.09300
C3354       C  0.71862428  0.62060864  0.00241877     0.20200
C3355       C  0.68095762  0.60292890  0.03338899    -0.54600
C3356       C  0.71501421  0.61943673  0.02690099     0.09400
C3357       C  0.66332668  0.62212636  0.00311917    -0.54200
C3358       C  0.69711909  0.63898719  0.99484968     0.09900
H3359       H  0.64495593  0.53577583  0.00399810     0.14400
H3360       H  0.74629981  0.63419369  0.99627451     0.00200
H3361       H  0.67399482  0.59949196  0.04980962     0.14800
H3362       H  0.64558987  0.63294284  0.00216640     0.14500
C3363       C  0.91258040  0.84668803  0.01453574     0.86300
C3364       C  0.88102900  0.83733481  0.99988678    -0.53900
C3365       C  0.86297791  0.80262751  0.99271534     0.09300
C3366       C  0.88010236  0.78058311  0.00132206     0.20200
C3367       C  0.89641147  0.81972283  0.03152607    -0.54600
C3368       C  0.88027556  0.78544092  0.02560242     0.09400
C3369       C  0.93693076  0.83583839  0.00273955    -0.54200
C3370       C  0.92049840  0.80165031  0.99481790     0.09900
H3371       H  0.87236024  0.85615813  0.99642126     0.14400
H3372       H  0.86637547  0.75256658  0.99572393     0.00200
H3373       H  0.89917540  0.82737038  0.04784338     0.14800
H3374       H  0.96551773  0.85342510  0.00187731     0.14500
C3375       C  0.91460259  0.58614357  0.01466502     0.86300
C3376       C  0.93684922  0.61827558  0.00040385    -0.53900
C3377       C  0.91985929  0.63596981  0.99345361     0.09300
C3378       C  0.88078348  0.61850845  0.00195709     0.20200
C3379       C  0.90285747  0.60131951  0.03188259    -0.54600
C3380       C  0.88537076  0.61809879  0.02604194     0.09400
C3381       C  0.87961398  0.56181538  0.00268309    -0.59000
C3382       C  0.86154949  0.57826160  0.99528860     0.09900
H3383       H  0.96462995  0.62750605  0.99706640     0.14400
H3384       H  0.86676985  0.63237825  0.99640703     0.00200
H3385       H  0.90761480  0.59849667  0.04815138     0.14800
H3386       H  0.86909241  0.53337748  0.00104006     0.14500
O3387       O  0.87803319  0.67259642  0.16286973    -0.82000
C3388       C  0.76979837  0.65180608  0.10908303     0.97400
O3389       O  0.76666089  0.62733449  0.12115248    -0.71100
O3390       O  0.82208152  0.62360047  0.11358961    -0.74700
Al3391     Al  0.80342110  0.62793364  0.13841706     1.49000
C3392       C  0.85413774  0.63787060  0.10820887     0.92700
O3393       O  0.88219930  0.71743274  0.11286003    -0.80900
O3394       O  0.83582735  0.72469089  0.16389287    -0.74400
Al3395     Al  0.87865207  0.69444569  0.13786803     1.90100
O3396       O  0.84765786  0.73927850  0.12114827    -0.73500
O3397       O  0.77289175  0.67279696  0.15727397    -0.73400
O3398       O  0.78724735  0.68391568  0.11463559    -0.79000
O3399       O  0.78247497  0.62859097  0.16322186    -0.77200
O3400       O  0.83134769  0.67517140  0.13847150    -1.13400
O3401       O  0.83448737  0.61879497  0.15556529    -0.72600
C3402       C  0.85839157  0.64040394  0.16789721     0.98200
C3403       C  0.86731197  0.73496287  0.10809509     0.94600
Al3404     Al  0.81220503  0.70318709  0.13921579     1.55600
O3405       O  0.87867639  0.65789639  0.12064855    -0.77200
C3406       C  0.77014982  0.64803522  0.16890361     0.98700
C3407       C  0.86840530  0.73765538  0.16791442     0.93600
O3408       O  0.88898802  0.73525593  0.15479371    -0.82500
N3409       N  0.99306197  0.80235691  0.95852747    -0.36800
N3410       N  0.94559853  0.73147893  0.97603180    -0.57300
N3411       N  0.99143289  0.70484943  0.95677060    -0.36800
N3412       N  0.53951160  0.77620711  0.93964149    -0.57300
C3413       C  0.96963260  0.80974367  0.96869502     0.26800
C3414       C  0.51918210  0.83314684  0.94993596     0.26800
C3415       C  0.96555279  0.67425772  0.96578039     0.26800
C3416       C  0.51427293  0.69716300  0.94613248     0.26800
C3417       C  0.93311175  0.75070149  0.98647828     0.35400
C3418       C  0.93325349  0.69983206  0.98621143     0.35400
C3419       C  0.55289737  0.80854760  0.93006697     0.35400
C3420       C  0.55106092  0.75670854  0.92864180     0.35400
C3421       C  0.98031336  0.84531726  0.96517751    -0.22000
C3422       C  0.51282171  0.86047701  0.95559653    -0.22000
C3423       C  0.97118994  0.64662616  0.95979318    -0.22000
C3424       C  0.50313056  0.66137427  0.94947232    -0.22000
C3425       C  0.91319601  0.73101501  0.00310109    -0.23100
C3426       C  0.91357881  0.69993611  0.00307121    -0.23100
C3427       C  0.57284801  0.80904387  0.91323327    -0.23100
C3428       C  0.57089393  0.77679090  0.91201921    -0.23100
C3429       C  0.94081631  0.78646215  0.98234820    -0.18400
C3430       C  0.54616469  0.83706760  0.93525313    -0.18400
C3431       C  0.54337636  0.72079361  0.93262456    -0.18400
C3432       C  0.93941423  0.67091205  0.98095198    -0.18400
H3433       H  0.96661091  0.85981256  0.96873993     0.14500
H3434       H  0.52893217  0.88876190  0.95249720     0.14500
H3435       H  0.95498340  0.61841956  0.96307300     0.14500
H3436       H  0.51624106  0.64644229  0.94565719     0.14500
H3437       H  0.90034096  0.73796707  0.01480468     0.12700
H3438       H  0.90107646  0.68070181  0.01492166     0.12700
H3439       H  0.58681385  0.82960569  0.90220436     0.12700
H3440       H  0.58188702  0.76921532  0.89947911     0.12700
H3441       H  0.99066508  0.77758131  0.95663011     0.26000
H3442       H  0.99434083  0.72980290  0.95891487     0.26000
N3443       N  0.69519321  0.70995622  0.95866056    -0.36800
N3444       N  0.72082729  0.78232211  0.94020153    -0.57300
N3445       N  0.79303147  0.80609096  0.95695095    -0.36800
N3446       N  0.76727086  0.73315119  0.97498627    -0.57300
C3447       C  0.66420425  0.70499505  0.95016819     0.26800
C3448       C  0.68802481  0.67934987  0.96880340     0.26800
C3449       C  0.80052818  0.83625973  0.94611229     0.26800
C3450       C  0.82396364  0.81069653  0.96546823     0.26800
C3451       C  0.68830409  0.76323241  0.93069775     0.35400
C3452       C  0.74003692  0.81368819  0.92955067     0.35400
C3453       C  0.74780388  0.70200574  0.98576994     0.35400
C3454       C  0.79895396  0.75263764  0.98518222     0.35400
C3455       C  0.63693676  0.67146829  0.95595799    -0.22000
C3456       C  0.65224422  0.65447042  0.96561202    -0.22000
C3457       C  0.83661376  0.86066415  0.94887810    -0.22000
C3458       C  0.85148474  0.84380063  0.95929496    -0.22000
C3459       C  0.68742992  0.78295863  0.91431685    -0.23100
C3460       C  0.71933331  0.81352819  0.91340481    -0.23100
C3461       C  0.76729129  0.70253501  0.00259469    -0.23100
C3462       C  0.79866191  0.73359089  0.00224215    -0.23100
C3463       C  0.66004771  0.72757424  0.93542880    -0.18400
C3464       C  0.71185376  0.67394327  0.98200532    -0.18400
C3465       C  0.82785313  0.78769631  0.98015673    -0.18400
C3466       C  0.77645860  0.84174523  0.93300985    -0.18400
H3467       H  0.60865552  0.65922590  0.95283466     0.14500
H3468       H  0.63775996  0.62636074  0.96927411     0.14500
H3469       H  0.85165470  0.88845849  0.94464485     0.14500
H3470       H  0.87975678  0.85567059  0.96230323     0.14500
H3471       H  0.66731916  0.77631512  0.90296823     0.12700
H3472       H  0.72618291  0.83194151  0.90104104     0.12700
H3473       H  0.75962851  0.68400521  0.01495853     0.12700
H3474       H  0.81766853  0.74105752  0.01426176     0.12700
H3475       H  0.72003492  0.73229691  0.95665280     0.26000
H3476       H  0.76796173  0.78432464  0.95948586     0.26000
C3477       C  0.99044655  0.75474968  0.34900418     0.86300
C3478       C  0.50052096  0.73173233  0.33480465    -0.53900
C3479       C  0.53506553  0.74906403  0.32711106     0.09300
C3480       C  0.55665983  0.78836542  0.33567325     0.20200
C3481       C  0.51735375  0.76568183  0.36586174    -0.54600
C3482       C  0.55171181  0.78367624  0.35992035     0.09400
C3483       C  0.50097808  0.78891098  0.33679274    -0.54200
C3484       C  0.53522367  0.80717030  0.32923030     0.09900
H3485       H  0.98329236  0.70330179  0.33360599     0.14400
H3486       H  0.58464649  0.80302330  0.33004031     0.00200
H3487       H  0.50962894  0.76042757  0.38214312     0.14800
H3488       H  0.98304263  0.79968451  0.33591454     0.14500
C3489       C  0.74999657  0.75132608  0.34591754     0.86300
C3490       C  0.77390753  0.78502803  0.33289771    -0.53900
C3491       C  0.75771595  0.80366056  0.32608944     0.09300
C3492       C  0.71805260  0.78584983  0.33391095     0.20200
C3493       C  0.73782129  0.76555552  0.36349797    -0.54600
C3494       C  0.72111739  0.78332702  0.35808484     0.09400
C3495       C  0.71625024  0.72888995  0.33297978    -0.54200
C3496       C  0.69891314  0.74614466  0.32604511     0.09900
H3497       H  0.80205075  0.79484221  0.33044024     0.14400
H3498       H  0.70438710  0.80023318  0.32864521     0.00200
H3499       H  0.74197162  0.76157723  0.37968151     0.14800
H3500       H  0.70589771  0.70063920  0.33063851     0.14500
C3501       C  0.75402194  0.51538873  0.35091503     0.86300
C3502       C  0.71930684  0.00574067  0.33823354    -0.53900
C3503       C  0.70107052  0.97203276  0.32961538     0.09300
C3504       C  0.71834502  0.94911388  0.33630286     0.20200
C3505       C  0.73779939  0.98650249  0.36738912    -0.54600
C3506       C  0.72043467  0.95258795  0.36063839     0.09400
C3507       C  0.77576043  0.00373942  0.33745376    -0.54200
C3508       C  0.75834137  0.96981770  0.32911936     0.09900
H3509       H  0.70798544  0.52346544  0.33954342     0.14400
H3510       H  0.70368637  0.92149485  0.33011371     0.00200
H3511       H  0.74103690  0.99307512  0.38386273     0.14800
H3512       H  0.80502460  0.52150816  0.33621622     0.14500
O3513       O  0.61549768  0.79101052  0.49682540    -0.82000
C3514       C  0.69934158  0.89896339  0.44205458     0.97400
O3515       O  0.67888302  0.90241596  0.45486017    -0.71100
O3516       O  0.61946449  0.84619341  0.44803583    -0.74700
Al3517     Al  0.64382088  0.86556646  0.47260443     1.49000
C3518       C  0.60233141  0.81406975  0.44256172     0.92700
O3519       O  0.65624705  0.78786605  0.44649158    -0.80900
O3520       O  0.71167357  0.83671708  0.49607922    -0.74400
Al3521     Al  0.63704666  0.79119082  0.47167439     1.90100
O3522       O  0.71267742  0.82336900  0.45345405    -0.73500
O3523       O  0.72044661  0.89858398  0.48882190    -0.73400
O3524       O  0.71477904  0.88210148  0.44693654    -0.79000
O3525       O  0.66671086  0.88722737  0.49728392    -0.77200
O3526       O  0.66407387  0.83850433  0.47190892    -1.13400
O3527       O  0.60459076  0.83419341  0.49022797    -0.72600
C3528       C  0.60223134  0.80989008  0.50212199     0.98200
C3529       C  0.68835187  0.80308484  0.44092882     0.94600
Al3530     Al  0.71150675  0.85876679  0.47140619     1.55600
O3531       O  0.59968377  0.78975822  0.45459157    -0.77200
C3532       C  0.69920151  0.90068279  0.50158720     0.98700
C3533       C  0.69278160  0.80442729  0.50089666     0.93600
O3534       O  0.66884800  0.78276059  0.48858433    -0.82500
C3535       C  0.67294400  0.59668666  0.23566268     0.86300
C3536       C  0.66400122  0.56498964  0.25027634    -0.53900
C3537       C  0.62871282  0.54507782  0.25641047     0.09300
C3538       C  0.60571105  0.56036292  0.24703835     0.20200
C3539       C  0.64772991  0.57986436  0.21793684    -0.54600
C3540       C  0.61292003  0.56167622  0.22299304     0.09400
C3541       C  0.65910863  0.61894173  0.24680671    -0.54200
C3542       C  0.62464569  0.60067967  0.25415150     0.09900
H3543       H  0.68359361  0.55774382  0.25453026     0.14400
H3544       H  0.57718839  0.54451190  0.25161846     0.00200
H3545       H  0.65684412  0.58357723  0.20187251     0.14800
H3546       H  0.67537710  0.64762922  0.24825797     0.14500
C3547       C  0.91815505  0.83612273  0.23427453     0.86300
C3548       C  0.89162044  0.84482882  0.24595606    -0.53900
C3549       C  0.90609396  0.87863905  0.25460265     0.09300
C3550       C  0.94654425  0.90155190  0.24847482     0.20200
C3551       C  0.93347037  0.86425376  0.21773148    -0.54600
C3552       C  0.94615144  0.89827954  0.22410736     0.09400
C3553       C  0.94967481  0.84663796  0.24856241    -0.54200
C3554       C  0.96506146  0.88047470  0.25661192     0.09900
H3555       H  0.86308330  0.82784774  0.24501366     0.14400
H3556       H  0.96035665  0.92934456  0.25445820     0.00200
H3557       H  0.93052931  0.85708395  0.20135841     0.14800
H3558       H  0.96088196  0.82928843  0.25048007     0.14500
C3559       C  0.90692968  0.59379272  0.23562898     0.86300
C3560       C  0.94070189  0.61816603  0.24857242    -0.53900
C3561       C  0.95945383  0.60234860  0.25586420     0.09300
C3562       C  0.94192125  0.56267474  0.24859363     0.20200
C3563       C  0.92183109  0.58156095  0.21846324    -0.54600
C3564       C  0.93951573  0.56500524  0.22447465     0.09400
C3565       C  0.88449892  0.55986818  0.24859590    -0.54200
C3566       C  0.90216600  0.54323116  0.25612464     0.09900
H3567       H  0.95146733  0.64645425  0.25007939     0.14400
H3568       H  0.95670582  0.54973184  0.25432579     0.00200
H3569       H  0.91817675  0.58526180  0.20215484     0.14800
H3570       H  0.85584405  0.54851981  0.25015694     0.14500
O3571       O  0.99505721  0.55597504  0.08786893    -0.82000
C3572       C  0.96171933  0.94689316  0.14341035     0.97400
O3573       O  0.93849327  0.94233960  0.13002134    -0.71100
O3574       O  0.94216385  0.50300347  0.13639712    -0.74700
Al3575     Al  0.94284426  0.98024491  0.11251901     1.49000
C3576       C  0.96067535  0.53467401  0.14237616     0.92700
O3577       O  0.53845247  0.55437445  0.13698695    -0.80900
O3578       O  0.53737168  0.50194080  0.08647074    -0.74400
Al3579     Al  0.51580722  0.55306544  0.11246727     1.90100
O3580       O  0.55552902  0.51628659  0.12850849    -0.73500
O3581       O  0.98009592  0.94077885  0.09619485    -0.73400
O3582       O  0.99391326  0.95988001  0.13813631    -0.79000
O3583       O  0.94164031  0.95741179  0.08786576    -0.77200
O3584       O  0.99190367  0.50585193  0.11198753    -1.13400
O3585       O  0.93957045  0.51516347  0.09428971    -0.72600
C3586       C  0.96276875  0.53925825  0.08269498     0.98200
C3587       C  0.55472566  0.53812478  0.14136725     0.94600
Al3588     Al  0.51426188  0.98038336  0.11271912     1.55600
O3589       O  0.98286477  0.55828527  0.13020003    -0.77200
C3590       C  0.95753225  0.94052707  0.08368668     0.98700
C3591       C  0.55299313  0.53475294  0.08211816     0.93600
O3592       O  0.55362820  0.55722084  0.09508385    -0.82500
N3593       N  0.53268687  0.67761788  0.28953878    -0.36800
N3594       N  0.60462144  0.72356458  0.30763224    -0.57300
N3595       N  0.62654927  0.67251292  0.29131142    -0.36800
N3596       N  0.55513002  0.62697773  0.27290413    -0.57300
C3597       C  0.52692742  0.70235284  0.29942091     0.26800
C3598       C  0.50137780  0.65264141  0.28068024     0.26800
C3599       C  0.65806762  0.69813247  0.29969995     0.26800
C3600       C  0.63248754  0.64786356  0.28144807     0.26800
C3601       C  0.58581665  0.73649435  0.31810242     0.35400
C3602       C  0.63588905  0.73488290  0.31811145     0.35400
C3603       C  0.52373067  0.61542735  0.26253742     0.35400
C3604       C  0.57335260  0.61269148  0.26309486     0.35400
C3605       C  0.49218132  0.69406370  0.29526396    -0.22000
C3606       C  0.97477106  0.65992663  0.28660442    -0.22000
C3607       C  0.68420507  0.68990445  0.29437129    -0.22000
C3608       C  0.66758474  0.65693122  0.28534945    -0.22000
C3609       C  0.60558955  0.75568266  0.33496626    -0.23100
C3610       C  0.63630339  0.75464703  0.33495670    -0.23100
C3611       C  0.52308766  0.59449832  0.24615873    -0.23100
C3612       C  0.55319225  0.59210474  0.24673571    -0.23100
C3613       C  0.55032981  0.72972065  0.31382489    -0.18400
C3614       C  0.49584009  0.62369838  0.26704621    -0.18400
C3615       C  0.60891223  0.61979038  0.26732936    -0.18400
C3616       C  0.66354678  0.72662248  0.31367116    -0.18400
H3617       H  0.97772584  0.70703607  0.30011594     0.14500
H3618       H  0.94632691  0.64468664  0.28393443     0.14500
H3619       H  0.71270202  0.70537931  0.29688622     0.14500
H3620       H  0.68103379  0.64212886  0.28186689     0.14500
H3621       H  0.59885603  0.76795151  0.34712454     0.12700
H3622       H  0.65546607  0.76605276  0.34697980     0.12700
H3623       H  0.50402087  0.58280602  0.23417084     0.12700
H3624       H  0.55937298  0.57772752  0.23547293     0.12700
H3625       H  0.55667915  0.67797130  0.28860223     0.26000
H3626       H  0.60220024  0.67125895  0.29297221     0.26000
N3627       N  0.83117938  0.97218194  0.29289032    -0.36800
N3628       N  0.78375258  0.89990557  0.30956651    -0.57300
N3629       N  0.83154190  0.87497938  0.29103135    -0.36800
N3630       N  0.87747416  0.94690551  0.27352456    -0.57300
C3631       C  0.80637954  0.97812171  0.30252746     0.26800
C3632       C  0.85543796  0.00298624  0.28330148     0.26800
C3633       C  0.80544023  0.84383665  0.29950539     0.26800
C3634       C  0.85428534  0.86787252  0.27980238     0.26800
C3635       C  0.77030701  0.91841277  0.31993265     0.35400
C3636       C  0.77139205  0.86794673  0.31947589     0.35400
C3637       C  0.89186177  0.98008221  0.26466368     0.35400
C3638       C  0.89160650  0.92869877  0.26348043     0.35400
C3639       C  0.81468349  0.01282226  0.29824660    -0.22000
C3640       C  0.84677298  0.52947783  0.28781866    -0.22000
C3641       C  0.81130509  0.81658242  0.29299682    -0.22000
C3642       C  0.84295208  0.83182178  0.28230542    -0.22000
C3643       C  0.74933638  0.89763520  0.33599283    -0.23100
C3644       C  0.75069743  0.86707195  0.33601710    -0.23100
C3645       C  0.91479520  0.98210019  0.24918644    -0.23100
C3646       C  0.91400084  0.95054071  0.24825598    -0.23100
C3647       C  0.77808472  0.95443645  0.31627825    -0.18400
C3648       C  0.88353726  0.00796350  0.26915141    -0.18400
C3649       C  0.88377271  0.89236154  0.26671951    -0.18400
C3650       C  0.77830280  0.83947772  0.31427822    -0.18400
H3651       H  0.80029799  0.52697463  0.30203689     0.14500
H3652       H  0.86156317  0.55770671  0.28441588     0.14500
H3653       H  0.79511687  0.78822793  0.29583650     0.14500
H3654       H  0.85573456  0.81694308  0.27764938     0.14500
H3655       H  0.73517988  0.90338947  0.34746529     0.12700
H3656       H  0.73829525  0.84754685  0.34778904     0.12700
H3657       H  0.92993146  0.00274139  0.23841777     0.12700
H3658       H  0.92736426  0.94486843  0.23648392     0.12700
H3659       H  0.83172789  0.94863818  0.29292666     0.26000
H3660       H  0.83469626  0.89989423  0.29390882     0.26000
N3661       N  0.53258262  0.87896344  0.29475638    -0.36800
N3662       N  0.55749114  0.95141475  0.27639432    -0.57300
N3663       N  0.63066423  0.97488685  0.29317063    -0.36800
N3664       N  0.60468616  0.90344904  0.31194650    -0.57300
C3665       C  0.50215965  0.87280186  0.28495133     0.26800
C3666       C  0.52627937  0.84795927  0.30392055     0.26800
C3667       C  0.63550504  0.00606135  0.28485920     0.26800
C3668       C  0.66040386  0.98224165  0.30433079     0.26800
C3669       C  0.52840723  0.92959282  0.26460837     0.35400
C3670       C  0.57898534  0.98034160  0.26439921     0.35400
C3671       C  0.58545096  0.87146262  0.32198417     0.35400
C3672       C  0.63665175  0.92236758  0.32197850     0.35400
C3673       C  0.97567961  0.83812679  0.28911296    -0.22000
C3674       C  0.49154372  0.82180363  0.29912858    -0.22000
C3675       C  0.66851911  0.53478286  0.29143488    -0.22000
C3676       C  0.68489206  0.01843079  0.30180907    -0.22000
C3677       C  0.53241997  0.94404811  0.24522613    -0.23100
C3678       C  0.56367521  0.97601377  0.24520373    -0.23100
C3679       C  0.60521455  0.87095952  0.33840675    -0.23100
C3680       C  0.63654768  0.90227915  0.33846136    -0.23100
C3681       C  0.49884765  0.89562144  0.27009530    -0.18400
C3682       C  0.54990187  0.84300049  0.31746450    -0.18400
C3683       C  0.66533446  0.95807863  0.31764735    -0.18400
C3684       C  0.61322159  0.00988069  0.26974906    -0.18400
H3685       H  0.94782151  0.82465473  0.28478495     0.14500
H3686       H  0.97798656  0.79351455  0.30212482     0.14500
H3687       H  0.68029585  0.56304205  0.28841604     0.14500
H3688       H  0.71245118  0.53538959  0.30714732     0.14500
H3689       H  0.51616056  0.93100899  0.23189236     0.12700
H3690       H  0.57527085  0.99262296  0.23197415     0.12700
H3691       H  0.59802883  0.85112525  0.34999992     0.12700
H3692       H  0.65581283  0.90926119  0.35028465     0.12700
H3693       H  0.55628629  0.90302207  0.29502508     0.26000
H3694       H  0.60934215  0.94970713  0.29004404     0.26000
C3695       C  0.81924968  0.92233101  0.68239888     0.86300
C3696       C  0.82684296  0.89626140  0.66961438    -0.53900
C3697       C  0.86085538  0.91080317  0.66117630     0.09300
C3698       C  0.88436056  0.95113167  0.66789880     0.20200
C3699       C  0.84693745  0.93442704  0.69897588    -0.54600
C3700       C  0.88083558  0.94986448  0.69230497     0.09400
C3701       C  0.83068785  0.95543640  0.66892155    -0.54200
C3702       C  0.86448865  0.97115112  0.66065318     0.09900
H3703       H  0.80892746  0.86775628  0.67011865     0.14400
H3704       H  0.91189163  0.96384039  0.66161331     0.00200
H3705       H  0.84017530  0.93121613  0.71542802     0.14800
H3706       H  0.81376940  0.96720207  0.66778938     0.14500
C3707       C  0.58432823  0.67752497  0.68119700     0.86300
C3708       C  0.55110181  0.66852850  0.66797973    -0.53900
C3709       C  0.53256537  0.63407079  0.66017767     0.09300
C3710       C  0.54977137  0.61145345  0.66788475     0.20200
C3711       C  0.56875187  0.65056124  0.69821450    -0.54600
C3712       C  0.55138596  0.61624476  0.69220514     0.09400
C3713       C  0.60699689  0.66636743  0.66824196    -0.54200
C3714       C  0.58968090  0.63216224  0.66055829     0.09900
H3715       H  0.54099323  0.68673862  0.66658158     0.14400
H3716       H  0.53594574  0.58340571  0.66230858     0.00200
H3717       H  0.57203545  0.65817487  0.71453697     0.14800
H3718       H  0.63550689  0.68411787  0.66649115     0.14500
C3719       C  0.57799909  0.91511736  0.68036977     0.86300
C3720       C  0.60167627  0.94696936  0.66602928    -0.53900
C3721       C  0.58631599  0.96627730  0.65904108     0.09300
C3722       C  0.54717262  0.95046140  0.66763328     0.20200
C3723       C  0.56806819  0.93196655  0.69754223    -0.54600
C3724       C  0.55134623  0.94956586  0.69181030     0.09400
C3725       C  0.54292497  0.89237181  0.66857304    -0.54200
C3726       C  0.52646069  0.91005189  0.66095750     0.09900
H3727       H  0.62916297  0.95532623  0.66278321     0.14400
H3728       H  0.53440585  0.96567953  0.66225656     0.00200
H3729       H  0.57284030  0.92902362  0.71379368     0.14800
H3730       H  0.53116262  0.86365333  0.66731926     0.14500
O3731       O  0.54358628  0.50454826  0.83056009    -0.82000
C3732       C  0.93822639  0.98014431  0.77355482     0.97400
O3733       O  0.93477455  0.95594079  0.78594897    -0.71100
O3734       O  0.99163175  0.95387219  0.78049948    -0.74700
Al3735     Al  0.97055784  0.95774326  0.80458879     1.49000
C3736       C  0.52385005  0.96992799  0.77512473     0.92700
O3737       O  0.54874394  0.54899868  0.78043640    -0.80900
O3738       O  0.99619706  0.55275004  0.82952734    -0.74400
Al3739     Al  0.54432667  0.52603341  0.80544877     1.90100
O3740       O  0.01163062  0.56823273  0.78712351    -0.73500
O3741       O  0.93510202  0.49914533  0.82105000    -0.73400
O3742       O  0.95368647  0.51104040  0.77942027    -0.79000
O3743       O  0.94694025  0.95782505  0.82883092    -0.77200
O3744       O  0.99674039  0.50463796  0.80493675    -1.13400
O3745       O  0.00085605  0.94983769  0.82288267    -0.72600
C3746       C  0.52428556  0.97178391  0.83526408     0.98200
C3747       C  0.53299613  0.56518794  0.77482134     0.94600
Al3748     Al  0.97566033  0.53092513  0.80435173     1.55600
O3749       O  0.54749368  0.49104135  0.78811452    -0.77200
C3750       C  0.93295051  0.97645399  0.83307880     0.98700
C3751       C  0.52835393  0.56645695  0.83482543     0.93600
O3752       O  0.55092868  0.56549655  0.82258241    -0.82500
C3753       C  0.75005261  0.49975125  0.56742002     0.86300
C3754       C  0.72274755  0.50660141  0.57958493    -0.53900
C3755       C  0.73597134  0.54044343  0.58786070     0.09300
C3756       C  0.77605995  0.56522292  0.58115467     0.20200
C3757       C  0.76343881  0.52742808  0.55069790    -0.54600
C3758       C  0.77493774  0.56125074  0.55679968     0.09400
C3759       C  0.78218081  0.51187694  0.58138379    -0.54200
C3760       C  0.79655090  0.54581739  0.58919104     0.09900
H3761       H  0.69421543  0.98834547  0.57942754     0.14400
H3762       H  0.78805357  0.59323422  0.58669401     0.00200
H3763       H  0.76138956  0.52009429  0.53439555     0.14800
H3764       H  0.79386425  0.99578494  0.58326631     0.14500
C3765       C  0.00375282  0.76302487  0.56865687     0.86300
C3766       C  0.99543074  0.72977442  0.58176661    -0.53900
C3767       C  0.96073432  0.70990132  0.58899069     0.09300
C3768       C  0.93720807  0.72570655  0.58105583     0.20200
C3769       C  0.97768720  0.74732139  0.55130159    -0.54600
C3770       C  0.94321296  0.72830201  0.55685338     0.09400
C3771       C  0.99062102  0.78429376  0.58143996    -0.54200
C3772       C  0.95617465  0.76554526  0.58884642     0.09900
H3773       H  0.51427405  0.72051782  0.58335208     0.14400
H3774       H  0.90893579  0.70985566  0.58611250     0.00200
H3775       H  0.98600415  0.75170398  0.53508104     0.14800
H3776       H  0.50731492  0.81288161  0.58345301     0.14500
C3777       C  0.73628529  0.75298676  0.56859057     0.86300
C3778       C  0.76962962  0.77785749  0.58185130    -0.53900
C3779       C  0.78921827  0.76265154  0.58886385     0.09300
C3780       C  0.77254892  0.72298964  0.58113355     0.20200
C3781       C  0.75175652  0.74173599  0.55133467    -0.54600
C3782       C  0.76989623  0.72558052  0.55699170     0.09400
C3783       C  0.71450231  0.71908710  0.58144633    -0.54200
C3784       C  0.73288172  0.70322392  0.58892971     0.09900
H3785       H  0.77846118  0.80580514  0.58435199     0.14400
H3786       H  0.78736611  0.70969838  0.58635238     0.00200
H3787       H  0.74830175  0.74604462  0.53507748     0.14800
H3788       H  0.68595606  0.70769367  0.58350012     0.14500
O3789       O  0.87657539  0.67466988  0.42107778    -0.82000
C3790       C  0.79443513  0.70613760  0.47352095     0.97400
O3791       O  0.81830192  0.73033808  0.46225595    -0.71100
O3792       O  0.87516338  0.72900703  0.47011958    -0.74700
Al3793     Al  0.85264348  0.72613080  0.44499923     1.49000
C3794       C  0.89246476  0.71386447  0.47473311     0.92700
O3795       O  0.83358282  0.63769002  0.47291361    -0.80900
O3796       O  0.78372537  0.63010329  0.42007899    -0.74400
Al3797     Al  0.85443108  0.65611752  0.44676720     1.90100
O3798       O  0.77815417  0.61746277  0.46329050    -0.73500
O3799       O  0.77743997  0.68477083  0.42517147    -0.73400
O3800       O  0.77690666  0.67468550  0.46711899    -0.79000
O3801       O  0.83230897  0.72770244  0.41977445    -0.77200
O3802       O  0.82975225  0.67883746  0.44512125    -1.13400
O3803       O  0.89123447  0.73029542  0.42804004    -0.72600
C3804       C  0.89218624  0.70727670  0.41611670     0.98200
C3805       C  0.80078254  0.62296150  0.47739650     0.94600
Al3806     Al  0.78233272  0.65358242  0.44391990     1.55600
O3807       O  0.89406640  0.69227392  0.46214055    -0.77200
C3808       C  0.80059202  0.70919105  0.41378217     0.98700
C3809       C  0.80070544  0.61397083  0.41729232     0.93600
O3810       O  0.82109835  0.61430634  0.43136177    -0.82500
N3811       N  0.95532200  0.83572820  0.62613191    -0.36800
N3812       N  0.88449375  0.78890126  0.60736617    -0.57300
N3813       N  0.85909190  0.83691546  0.62468670    -0.36800
N3814       N  0.93019069  0.88332508  0.64347594    -0.57300
C3815       C  0.96218038  0.81159067  0.61640160     0.26800
C3816       C  0.98630482  0.86145592  0.63495196     0.26800
C3817       C  0.82828322  0.81046631  0.61597793     0.26800
C3818       C  0.85111164  0.85890222  0.63610408     0.26800
C3819       C  0.90393607  0.77619919  0.59735264     0.35400
C3820       C  0.85362248  0.77737415  0.59644694     0.35400
C3821       C  0.96286868  0.89771949  0.65289370     0.35400
C3822       C  0.91117966  0.89654656  0.65344010     0.35400
C3823       C  0.99723506  0.82106422  0.62065416    -0.22000
C3824       C  0.01300138  0.85373507  0.63002084    -0.22000
C3825       C  0.80044881  0.81538561  0.62239978    -0.22000
C3826       C  0.81487735  0.84668247  0.63344176    -0.22000
C3827       C  0.88496517  0.75668276  0.58039568    -0.23100
C3828       C  0.85433910  0.75801714  0.57961964    -0.23100
C3829       C  0.96409929  0.91981607  0.66864042    -0.23100
C3830       C  0.93209115  0.91828614  0.66929488    -0.23100
C3831       C  0.93953029  0.78378542  0.60198494    -0.18400
C3832       C  0.99103817  0.89002896  0.64865583    -0.18400
C3833       C  0.87497538  0.88853369  0.64942257    -0.18400
C3834       C  0.82468381  0.78377875  0.60108767    -0.18400
H3835       H  0.01118117  0.80676272  0.61712379     0.14500
H3836       H  0.54139924  0.86947880  0.63294701     0.14500
H3837       H  0.77225847  0.79881372  0.61921506     0.14500
H3838       H  0.79936851  0.85880529  0.63801618     0.14500
H3839       H  0.89221247  0.74360546  0.56894873     0.12700
H3840       H  0.83569739  0.74654650  0.56734098     0.12700
H3841       H  0.98476464  0.93477322  0.67955443     0.12700
H3842       H  0.92553249  0.93094598  0.68118865     0.12700
H3843       H  0.93084832  0.83438196  0.62706194     0.26000
H3844       H  0.88442157  0.84111497  0.62164755     0.26000
N3845       N  0.70867579  0.60833997  0.60759448    -0.36800
N3846       N  0.66019210  0.53581698  0.62326862    -0.57300
N3847       N  0.61399235  0.56178075  0.64118419    -0.36800
N3848       N  0.66221812  0.63358409  0.62520087    -0.57300
C3849       C  0.71859618  0.58802091  0.59601159     0.26800
C3850       C  0.72066281  0.64005380  0.59731774     0.26800
C3851       C  0.60317010  0.53087966  0.65200653     0.26800
C3852       C  0.60322365  0.58193128  0.65225277     0.26800
C3853       C  0.68388813  0.52861176  0.61329161     0.35400
C3854       C  0.63418285  0.50459492  0.63172193     0.35400
C3855       C  0.68752881  0.66491666  0.61666036     0.35400
C3856       C  0.63686705  0.63986097  0.63361051     0.35400
C3857       C  0.73526521  0.60665332  0.57843409    -0.22000
C3858       C  0.73810814  0.63924697  0.57964357    -0.22000
C3859       C  0.58664408  0.53260666  0.66992148    -0.22000
C3860       C  0.58615500  0.56371495  0.66991149    -0.22000
C3861       C  0.67310085  0.49283402  0.61617811    -0.23100
C3862       C  0.64063018  0.47738890  0.62598329    -0.23100
C3863       C  0.67897765  0.69120963  0.62098280    -0.23100
C3864       C  0.64554390  0.67463294  0.62931147    -0.23100
C3865       C  0.71275540  0.55285477  0.60001127    -0.18400
C3866       C  0.71457427  0.66899589  0.60219354    -0.18400
C3867       C  0.60921627  0.61684812  0.64765757    -0.18400
C3868       C  0.60759769  0.50103991  0.64659940    -0.18400
H3869       H  0.74217197  0.59697866  0.56515328     0.14500
H3870       H  0.75060749  0.65917253  0.56806080     0.14500
H3871       H  0.57670172  0.51426445  0.68237213     0.14500
H3872       H  0.57519572  0.57195054  0.68210053     0.14500
H3873       H  0.68656515  0.47837022  0.61201015     0.12700
H3874       H  0.62416324  0.94951629  0.62889233     0.12700
H3875       H  0.69419817  0.71950289  0.61772494     0.12700
H3876       H  0.63025669  0.68774475  0.63236367     0.12700
H3877       H  0.69631977  0.60183302  0.62207123     0.26000
H3878       H  0.62583546  0.56767377  0.62655893     0.26000
N3879       N  0.93608667  0.56570269  0.64190071    -0.36800
N3880       N  0.96258626  0.63817761  0.62441423    -0.57300
N3881       N  0.89076544  0.61568652  0.60796818    -0.36800
N3882       N  0.86451964  0.54368891  0.62608247    -0.57300
C3883       C  0.96814169  0.58456399  0.65194406     0.26800
C3884       C  0.91622095  0.53394562  0.65217590     0.26800
C3885       C  0.91160509  0.64552899  0.59646394     0.26800
C3886       C  0.86022807  0.59508384  0.59694323     0.26800
C3887       C  0.99344877  0.64378747  0.63358662     0.35400
C3888       C  0.96962121  0.66962772  0.61534654     0.35400
C3889       C  0.85677313  0.51214430  0.63516078     0.35400
C3890       C  0.83353548  0.53888653  0.61765004     0.35400
C3891       C  0.96787223  0.56420458  0.66833642    -0.22000
C3892       C  0.93623924  0.53322194  0.66842183    -0.22000
C3893       C  0.89398822  0.64292808  0.57821943    -0.22000
C3894       C  0.86243824  0.61139306  0.57834482    -0.22000
C3895       C  0.02018629  0.67838457  0.62922460    -0.23100
C3896       C  0.00461467  0.69525919  0.61970659    -0.23100
C3897       C  0.82117250  0.48733556  0.63147560    -0.23100
C3898       C  0.80604427  0.50498220  0.62251344    -0.23100
C3899       C  0.99732578  0.61992904  0.64758649    -0.18400
C3900       C  0.88002699  0.50617767  0.64834993    -0.18400
C3901       C  0.83046828  0.56145675  0.60257428    -0.18400
C3902       C  0.94658324  0.67452839  0.60127182    -0.18400
H3903       H  0.98732226  0.57048949  0.68000678     0.14500
H3904       H  0.92920057  0.51359943  0.68013836     0.14500
H3905       H  0.90321530  0.66089077  0.56550720     0.14500
H3906       H  0.84435692  0.60064497  0.56551180     0.14500
H3907       H  0.54837928  0.69121726  0.63267937     0.12700
H3908       H  0.01846296  0.72354090  0.61650829     0.12700
H3909       H  0.80768713  0.95869419  0.63396664     0.12700
H3910       H  0.77798639  0.49283986  0.61877297     0.12700
H3911       H  0.92894399  0.57334186  0.62834079     0.26000
H3912       H  0.89605314  0.61071894  0.62292217     0.26000
C3913       C  0.78320677  0.71390304  0.53918021    -0.05600
C3914       C  0.81264042  0.74145240  0.52844793    -0.33000
C3915       C  0.81535129  0.74092811  0.50685163     0.36200
C3916       C  0.78922518  0.71191737  0.49548230    -0.06000
C3917       C  0.76057876  0.68388512  0.50614120    -0.32900
C3918       C  0.75722048  0.68465910  0.52754672     0.36100
H3919       H  0.83113839  0.76589911  0.53640254     0.16500
O3920       O  0.84314709  0.76939308  0.49704858    -0.60400
H3921       H  0.73978471  0.66126540  0.49777265     0.16500
O3922       O  0.72523711  0.66008691  0.53630760    -0.60500
H3923       H  0.72385423  0.63657962  0.53456113     0.43500
H3924       H  0.83371932  0.78525673  0.49312254     0.43400
C3925       C  0.90674122  0.71808525  0.49587369    -0.05600
C3926       C  0.91217176  0.69129691  0.50420298    -0.33000
C3927       C  0.91842106  0.69068424  0.52538460     0.36200
C3928       C  0.91871706  0.71683559  0.53895045    -0.06000
C3929       C  0.91374227  0.74381225  0.53026334    -0.32900
C3930       C  0.90864299  0.74500582  0.50906296     0.36100
H3931       H  0.91093269  0.67029023  0.49436867     0.16500
O3932       O  0.92777484  0.66651035  0.53224796    -0.60400
H3933       H  0.91873232  0.76697828  0.53936494     0.16500
O3934       O  0.90743630  0.77378998  0.50124939    -0.60500
H3935       H  0.93230202  0.79090048  0.49688125     0.43500
H3936       H  0.95377851  0.67760570  0.52944653     0.43400
C3937       C  0.77587882  0.58519967  0.53977166    -0.05600
C3938       C  0.80609771  0.61828492  0.53590226    -0.33000
C3939       C  0.81219466  0.63263309  0.51588820     0.36200
C3940       C  0.78958035  0.61279687  0.49929173    -0.06000
C3941       C  0.75615531  0.58376756  0.50410863    -0.32900
C3942       C  0.74859189  0.57077188  0.52442191     0.36100
H3943       H  0.82550237  0.63242191  0.54790876     0.16500
O3944       O  0.83989108  0.66638162  0.51275300    -0.60400
H3945       H  0.73656453  0.57010894  0.49206150     0.16500
O3946       O  0.71533379  0.54235040  0.52902268    -0.60500
H3947       H  0.71201304  0.52235574  0.51989256     0.43500
H3948       H  0.82959553  0.68216369  0.51477080     0.43400
C3949       C  0.53852046  0.96203421  0.70956808    -0.05600
C3950       C  0.56509032  0.99070553  0.72127160    -0.33000
C3951       C  0.56214638  0.99245482  0.74284749     0.36200
C3952       C  0.53164797  0.96613595  0.75318948    -0.06000
C3953       C  0.50483529  0.93815641  0.74154636    -0.32900
C3954       C  0.50810811  0.93566674  0.72021543     0.36100
H3955       H  0.59042531  0.00938281  0.71418486     0.16500
O3956       O  0.58982147  0.01922979  0.75370863    -0.60400
H3957       H  0.98160264  0.91684476  0.74920829     0.16500
O3958       O  0.48368752  0.90470789  0.71048683    -0.60500
H3959       H  0.99241457  0.88759095  0.71249255     0.43500
H3960       H  0.60754323  0.01122859  0.75534678     0.43400
C3961       C  0.54048086  0.59083384  0.70978986    -0.05600
C3962       C  0.56884221  0.59023735  0.72008451    -0.33000
C3963       C  0.56770380  0.58401309  0.74145650     0.36200
C3964       C  0.53701916  0.57675188  0.75297598    -0.06000
C3965       C  0.50825352  0.57631281  0.74283946    -0.32900
C3966       C  0.51027955  0.58450177  0.72174819     0.36100
H3967       H  0.59421881  0.59982789  0.71218098     0.16500
O3968       O  0.59798704  0.58935247  0.75158521    -0.60400
H3969       H  0.48461435  0.57117062  0.75151129     0.16500
O3970       O  0.48468338  0.59081461  0.71372575    -0.60500
H3971       H  0.49284279  0.61623514  0.71692762     0.43500
H3972       H  0.61216268  0.58356940  0.74177754     0.43400
C3973       C  0.90726847  0.96302106  0.70932289    -0.05600
C3974       C  0.91150507  0.93721187  0.72029536    -0.33000
C3975       C  0.91991388  0.94140689  0.74142542     0.36200
C3976       C  0.92511220  0.97218974  0.75200238    -0.06000
C3977       C  0.92148288  0.99813923  0.74107030    -0.32900
C3978       C  0.91194796  0.99349459  0.72020602     0.36100
H3979       H  0.90427831  0.91174009  0.71314630     0.16500
O3980       O  0.92190971  0.91475114  0.75163999    -0.60400
H3981       H  0.92176207  0.51951319  0.74994475     0.16500
O3982       O  0.89920405  0.51404890  0.71247971    -0.60500
H3983       H  0.92006451  0.53859684  0.71263714     0.43500
H3984       H  0.89737638  0.89856595  0.75689436     0.43400
C3985       C  0.95193296  0.55142314  0.20727888    -0.05600
C3986       C  0.98137495  0.57715164  0.19577299    -0.33000
C3987       C  0.98409843  0.57302261  0.17446754     0.36200
C3988       C  0.95772475  0.54218413  0.16436730    -0.06000
C3989       C  0.92958498  0.51555849  0.17608137    -0.32900
C3990       C  0.92581034  0.52050727  0.19701327     0.36100
H3991       H  0.99999997  0.60266953  0.20270469     0.16500
O3992       O  0.01195544  0.59982645  0.16365857    -0.60400
H3993       H  0.90889690  0.49148052  0.16874365     0.16500
O3994       O  0.89389949  0.49751419  0.20646822    -0.60500
H3995       H  0.87771404  0.50694896  0.20333485     0.43500
H3996       H  0.50378685  0.61694065  0.16041549     0.43400
C3997       C  0.94453337  0.92175279  0.20764967    -0.05600
C3998       C  0.91477092  0.90638944  0.19410935    -0.33000
C3999       C  0.91925066  0.91453210  0.17297858     0.36200
C4000       C  0.95289061  0.94051770  0.16566410    -0.06000
C4001       C  0.97926074  0.96199094  0.18016653    -0.32900
C4002       C  0.97527858  0.95270845  0.20115609     0.36100
H4003       H  0.88965526  0.88387370  0.19923039     0.16500
O4004       O  0.89169693  0.89495195  0.15956438    -0.60400
H4005       H  0.00369270  0.98507872  0.17506348     0.16500
O4006       O  0.00151833  0.97341202  0.21498253    -0.60500
H4007       H  0.02368425  0.97530570  0.20924824     0.43500
H4008       H  0.89300776  0.87309559  0.15653085     0.43400
C4009       C  0.58882816  0.55019346  0.20488093    -0.05600
C4010       C  0.58675035  0.52202435  0.19261957    -0.33000
C4011       C  0.57728176  0.51836219  0.17167094     0.36200
C4012       C  0.57005846  0.54340518  0.16236237    -0.06000
C4013       C  0.57322104  0.57209135  0.17432847    -0.32900
C4014       C  0.58339307  0.57615134  0.19504833     0.36100
H4015       H  0.59503366  0.50412270  0.19882859     0.16500
O4016       O  0.57458953  0.48987561  0.16065015    -0.60400
H4017       H  0.56911532  0.59248212  0.16737550     0.16500
O4018       O  0.59214440  0.60781991  0.20476395    -0.60500
H4019       H  0.61750636  0.62442812  0.20104646     0.43500
H4020       H  0.59851466  0.49867672  0.15430298     0.43400
C4021       C  0.71220662  0.91920444  0.52162855    -0.05600
C4022       C  0.74894443  0.93950785  0.52528857    -0.33000
C4023       C  0.76176853  0.96181207  0.54260959     0.36200
C4024       C  0.73747488  0.96500938  0.55621047    -0.06000
C4025       C  0.70098780  0.93948212  0.55460610    -0.32900
C4026       C  0.68825630  0.91678904  0.53739841     0.36100
H4027       H  0.76794313  0.93994337  0.51408189     0.16500
O4028       O  0.79807418  0.98369642  0.54469352    -0.60400
H4029       H  0.68163713  0.93835745  0.56566655     0.16500
O4030       O  0.65230733  0.89275638  0.53604965    -0.60500
H4031       H  0.64134911  0.90668308  0.53096991     0.43500
H4032       H  0.80559989  0.00147940  0.53337214     0.43400
C4033       C  0.71450014  0.76729855  0.55785623    -0.05600
C4034       C  0.73059690  0.80412450  0.55395589    -0.33000
C4035       C  0.72343670  0.81665694  0.53571971     0.36200
C4036       C  0.69860311  0.79236100  0.52122444    -0.06000
C4037       C  0.67833051  0.75632117  0.52668842    -0.32900
C4038       C  0.68569533  0.74364851  0.54477629     0.36100
H4039       H  0.75161042  0.82348798  0.56372026     0.16500
O4040       O  0.74212749  0.85272601  0.53193779    -0.60400
H4041       H  0.65789575  0.73732790  0.51635358     0.16500
O4042       O  0.66764046  0.70737669  0.54798052    -0.60500
H4043       H  0.67837567  0.69752645  0.53820550     0.43500
H4044       H  0.76534365  0.85748380  0.52599961     0.43400
C4045       C  0.58395952  0.80346000  0.52241602    -0.05600
C4046       C  0.56801187  0.82351423  0.52813364    -0.33000
C4047       C  0.54649228  0.81482999  0.54578918     0.36200
C4048       C  0.54035121  0.78517199  0.55828970    -0.06000
C4049       C  0.56126948  0.76920562  0.55420763    -0.32900
C4050       C  0.58264162  0.77790141  0.53645335     0.36100
H4051       H  0.57023401  0.84465701  0.51819835     0.16500
O4052       O  0.52820583  0.83281044  0.54909569    -0.60400
H4053       H  0.55897066  0.74747699  0.56344342     0.16500
O4054       O  0.60016254  0.75939078  0.53238086    -0.60500
H4055       H  0.62160329  0.77056035  0.54135758     0.43500
H4056       H  0.50779225  0.82209910  0.53933813     0.43400
C4057       C  0.79623348  0.59525626  0.39735101    -0.05600
C4058       C  0.77511650  0.59827867  0.38185331    -0.33000
C4059       C  0.76586519  0.57716833  0.36400703     0.36200
C4060       C  0.77639958  0.55123099  0.36196859    -0.06000
C4061       C  0.80357982  0.55397463  0.37528551    -0.32900
C4062       C  0.81316227  0.57540503  0.39300898     0.36100
H4063       H  0.76458972  0.61621854  0.38383161     0.16500
O4064       O  0.74562401  0.58156002  0.34937837    -0.60400
H4065       H  0.81379990  0.53574121  0.37355009     0.16500
O4066       O  0.83692929  0.57451440  0.40661254    -0.60500
H4067       H  0.86071671  0.59412784  0.40216072     0.43500
H4068       H  0.76195474  0.59298308  0.33744947     0.43400
C4069       C  0.70861160  0.92616094  0.37752700    -0.05600
C4070       C  0.67904651  0.92179900  0.38927454    -0.33000
C4071       C  0.67684340  0.91544806  0.41057792     0.36200
C4072       C  0.70341114  0.91137909  0.42047925    -0.06000
C4073       C  0.73223435  0.91442080  0.40875610    -0.32900
C4074       C  0.73554688  0.92264604  0.38771887     0.36100
H4075       H  0.65999215  0.92819618  0.38263337     0.16500
O4076       O  0.64923857  0.91454720  0.42163899    -0.60400
H4077       H  0.75349782  0.91227648  0.41618346     0.16500
O4078       O  0.76807172  0.93388252  0.37829747    -0.60500
H4079       H  0.77237820  0.91342696  0.37904478     0.43500
H4080       H  0.65771553  0.93971994  0.42566521     0.43400
C4081       C  0.79037422  0.71543504  0.39308821    -0.05600
C4082       C  0.75564694  0.69264909  0.38605194    -0.33000
C4083       C  0.74339002  0.69997432  0.36789379     0.36200
C4084       C  0.76627012  0.73091513  0.35604477    -0.06000
C4085       C  0.80276188  0.74993011  0.36141906    -0.32900
C4086       C  0.81470798  0.74287440  0.37989661     0.36100
H4087       H  0.73686957  0.67013622  0.39533431     0.16500
O4088       O  0.70765230  0.67926537  0.36359284    -0.60400
H4089       H  0.82181576  0.77303219  0.35280031     0.16500
O4090       O  0.84988844  0.76418614  0.38526441    -0.60500
H4091       H  0.85119246  0.78547691  0.39204232     0.43500
H4092       H  0.69538196  0.68830682  0.37277447     0.43400
C4093       C  0.69632772  0.79920919  0.41902147    -0.05600
C4094       C  0.72745533  0.82601669  0.40949269    -0.33000
C4095       C  0.73385366  0.82405312  0.38832525     0.36200
C4096       C  0.70824397  0.79565554  0.37593937    -0.06000
C4097       C  0.67678637  0.76945401  0.38558892    -0.32900
C4098       C  0.67082910  0.77089936  0.40673571     0.36100
H4099       H  0.74736282  0.84816154  0.41855583     0.16500
O4100       O  0.76679088  0.84802350  0.38036404    -0.60400
H4101       H  0.65854445  0.74523025  0.37735411     0.16500
O4102       O  0.64071799  0.74317487  0.41542254    -0.60500
H4103       H  0.64817048  0.72625274  0.42043132     0.43500
H4104       H  0.78243331  0.83796138  0.38349358     0.43400
C4105       C  0.95423936  0.73974828  0.35992279    -0.05600
C4106       C  0.95048776  0.76480129  0.37232935    -0.33000
C4107       C  0.93070600  0.75476963  0.39054927     0.36200
C4108       C  0.91150148  0.71855138  0.39615292    -0.06000
C4109       C  0.91009306  0.69281432  0.38214125    -0.32900
C4110       C  0.93148960  0.70302573  0.36424608     0.36100
H4111       H  0.96756776  0.79323816  0.36988070     0.16500
O4112       O  0.93355964  0.78113310  0.40370769    -0.60400
H4113       H  0.89362244  0.66456661  0.38549505     0.16500
O4114       O  0.93003486  0.67683446  0.35153867    -0.60500
H4115       H  0.94112225  0.66532258  0.35947769     0.43500
H4116       H  0.91646303  0.78811537  0.39841209     0.43400
C4117       C  0.58939835  0.80617677  0.42096346    -0.05600
C4118       C  0.58795334  0.77693667  0.41060815    -0.33000
C4119       C  0.58152431  0.77209030  0.38925498     0.36200
C4120       C  0.57695558  0.79717876  0.37756906    -0.06000
C4121       C  0.57878429  0.82663532  0.38817118    -0.32900
C4122       C  0.58418328  0.83082286  0.40953411     0.36100
H4123       H  0.59109000  0.75729261  0.41919485     0.16500
O4124       O  0.57624677  0.74088690  0.38037630    -0.60400
H4125       H  0.57118375  0.84400333  0.38045279     0.16500
O4126       O  0.58197721  0.85793824  0.41929497    -0.60500
H4127       H  0.55656385  0.84737496  0.42351022     0.43500
H4128       H  0.55163737  0.72240747  0.38438078     0.43400
C4129       C  0.86400321  0.62884626  0.18844786    -0.05600
C4130       C  0.88876417  0.65469566  0.20211551    -0.33000
C4131       C  0.89942844  0.64489350  0.22015538     0.36200
C4132       C  0.88507158  0.60829357  0.22496420    -0.06000
C4133       C  0.85535645  0.58319006  0.21316906    -0.32900
C4134       C  0.84508906  0.59310836  0.19502532     0.36100
H4135       H  0.90148166  0.68287317  0.19836711     0.16500
O4136       O  0.92434758  0.67152344  0.23245292    -0.60400
H4137       H  0.84305807  0.55486043  0.21629966     0.16500
O4138       O  0.81858180  0.56711143  0.18309058    -0.60500
H4139       H  0.79595858  0.56418676  0.18888971     0.43500
H4140       H  0.94685867  0.68279175  0.22424718     0.43400
C4141       C  0.88180887  0.75560494  0.18813521    -0.05600
C4142       C  0.85715753  0.75248527  0.20349465    -0.33000
C4143       C  0.86840131  0.77401629  0.22129705     0.36200
C4144       C  0.90485198  0.79993977  0.22344493    -0.06000
C4145       C  0.92968553  0.79667530  0.21052017    -0.32900
C4146       C  0.91843752  0.77518401  0.19279107     0.36100
H4147       H  0.82887393  0.73407056  0.20145350     0.16500
O4148       O  0.84391629  0.76866083  0.23651802    -0.60400
H4149       H  0.95811871  0.81465103  0.21250676     0.16500
O4150       O  0.94359686  0.77593556  0.17941245    -0.60500
H4151       H  0.94904428  0.75771159  0.18474251     0.43500
H4152       H  0.82487001  0.77144790  0.22979218     0.43400
C4153       C  0.75258017  0.64076016  0.18940488    -0.05600
C4154       C  0.74900264  0.61156791  0.20076975    -0.33000
C4155       C  0.72775975  0.59970903  0.21849336     0.36200
C4156       C  0.71026896  0.61795843  0.22593842    -0.06000
C4157       C  0.71898079  0.65070147  0.21610859    -0.32900
C4158       C  0.73959642  0.66190669  0.19802705     0.36100
H4159       H  0.76043677  0.59580296  0.19509299     0.16500
O4160       O  0.72161342  0.56809984  0.22690597    -0.60400
H4161       H  0.70627870  0.66580531  0.22054854     0.16500
O4162       O  0.74418717  0.69190364  0.18810165    -0.60500
H4163       H  0.76719139  0.71169714  0.19330647     0.43500
H4164       H  0.70302443  0.54909759  0.21806676     0.43400
C4165       C  0.93370354  0.56887484  0.02538338    -0.05600
C4166       C  0.91205536  0.53446513  0.03391059    -0.33000
C4167       C  0.92121549  0.52423804  0.05233011     0.36200
C4168       C  0.95286049  0.54810622  0.06265338    -0.06000
C4169       C  0.97670388  0.58041867  0.05303461    -0.32900
C4170       C  0.96750906  0.59111583  0.03486412     0.36100
H4171       H  0.88590685  0.51633299  0.02778255     0.16500
O4172       O  0.89817742  0.49130585  0.06049436    -0.60400
H4173       H  0.00197636  0.59876561  0.06027707     0.16500
O4174       O  0.99057835  0.62496841  0.02788361    -0.60500
H4175       H  0.98571095  0.64109719  0.03657533     0.43500
H4176       H  0.90248597  0.47435682  0.05229666     0.43400
C4177       C  0.87241116  0.63082091  0.04345959    -0.05600
C4178       C  0.84121398  0.60442456  0.05317318    -0.33000
C4179       C  0.83592561  0.60553289  0.07435758     0.36200
C4180       C  0.86176932  0.63379281  0.08647266    -0.06000
C4181       C  0.89248208  0.66089814  0.07688366    -0.32900
C4182       C  0.89810916  0.65953648  0.05561845     0.36100
H4183       H  0.82298030  0.58014246  0.04498160     0.16500
O4184       O  0.80619481  0.57759106  0.08323333    -0.60400
H4185       H  0.91257709  0.68291124  0.08594027     0.16500
O4186       O  0.93099738  0.68333713  0.04749444    -0.60500
H4187       H  0.93244586  0.70698174  0.04805954     0.43500
H4188       H  0.81423453  0.56122831  0.08842524     0.43400
C4189       C  0.93090863  0.88284178  0.02568465    -0.05600
C4190       C  0.96340573  0.89219100  0.03591992    -0.33000
C4191       C  0.97213099  0.91005704  0.05494863     0.36200
C4192       C  0.94957776  0.92124482  0.06375152    -0.06000
C4193       C  0.91948568  0.91574278  0.05269374    -0.32900
C4194       C  0.90974264  0.89657082  0.03417758     0.36100
H4195       H  0.98025143  0.88174128  0.03086044     0.16500
O4196       O  0.00225824  0.91535276  0.06502527    -0.60400
H4197       H  0.90175581  0.92429020  0.05909491     0.16500
O4198       O  0.87753526  0.88868451  0.02583414    -0.60500
H4199       H  0.85923016  0.86818250  0.03397485     0.43500
H4200       H  0.49430560  0.89359511  0.07369633     0.43400
C4201       C  0.87017595  0.74687667  0.08638476    -0.05600
C4202       C  0.84132033  0.74777530  0.07726773    -0.33000
C4203       C  0.84142384  0.75479160  0.05610557     0.36200
C4204       C  0.87050780  0.76031542  0.04327817    -0.06000
C4205       C  0.89920448  0.75896349  0.05263662    -0.32900
C4206       C  0.89931489  0.75260286  0.07382302     0.36100
H4207       H  0.81886191  0.74384522  0.08670528     0.16500
O4208       O  0.81470497  0.75996322  0.04865291    -0.60400
H4209       H  0.92378570  0.76732315  0.04408606     0.16500
O4210       O  0.92914906  0.75429731  0.08231169    -0.60500
H4211       H  0.94375084  0.77921541  0.08742442     0.43500
H4212       H  0.82315394  0.78572772  0.05081555     0.43400
C4213       C  0.61727536  0.57487908  0.02760798    -0.05600
C4214       C  0.59348770  0.53792519  0.02928560    -0.33000
C4215       C  0.57032194  0.52425851  0.04629111     0.36200
C4216       C  0.57122477  0.54758599  0.06196925    -0.06000
C4217       C  0.58973052  0.58435071  0.05815467    -0.32900
C4218       C  0.61210355  0.59813123  0.04101947     0.36100
H4219       H  0.59410151  0.51914274  0.01844159     0.16500
O4220       O  0.54808214  0.48807458  0.04775838    -0.60400
H4221       H  0.58874787  0.60293181  0.06912300     0.16500
O4222       O  0.63209328  0.63463998  0.03899316    -0.60500
H4223       H  0.65022088  0.64304927  0.05015220     0.43500
H4224       H  0.52639160  0.48311966  0.03992678     0.43400
C4225       C  0.75659818  0.64387114  0.08744718    -0.05600
C4226       C  0.75344779  0.61368001  0.07729943    -0.33000
C4227       C  0.74519122  0.60777714  0.05615668     0.36200
C4228       C  0.74116951  0.63303212  0.04425132    -0.06000
C4229       C  0.74505385  0.66362432  0.05458813    -0.32900
C4230       C  0.75186544  0.66871577  0.07586464     0.36100
H4231       H  0.75637064  0.59393367  0.08593968     0.16500
O4232       O  0.73727969  0.57532128  0.04788109    -0.60400
H4233       H  0.73814504  0.68145842  0.04680600     0.16500
O4234       O  0.75151521  0.69699190  0.08542148    -0.60500
H4235       H  0.72690268  0.68710179  0.09098771     0.43500
H4236       H  0.71125484  0.55943333  0.05017786     0.43400
C4237       C  0.78361772  0.90953509  0.69358986    -0.05600
C4238       C  0.75856146  0.87298046  0.69552273    -0.33000
C4239       C  0.73502685  0.86059429  0.71240903     0.36200
C4240       C  0.73648791  0.88489635  0.72770821    -0.06000
C4241       C  0.75678784  0.92146762  0.72380049    -0.32900
C4242       C  0.77992257  0.93398310  0.70686108     0.36100
H4243       H  0.75863823  0.85342428  0.68508099     0.16500
O4244       O  0.71225877  0.82449120  0.71436019    -0.60400
H4245       H  0.75694350  0.94066648  0.73474371     0.16500
O4246       O  0.80308104  0.97013085  0.70555628    -0.60500
H4247       H  0.78874288  0.98019226  0.69984629     0.43500
H4248       H  0.68948348  0.82001314  0.70808716     0.43400
C4249       C  0.62298249  0.75794899  0.72736408    -0.05600
C4250       C  0.64266520  0.74122578  0.72250829    -0.33000
C4251       C  0.63448398  0.71942084  0.70505159     0.36200
C4252       C  0.60572327  0.71377616  0.69193544    -0.06000
C4253       C  0.59064394  0.73571532  0.69489566    -0.32900
C4254       C  0.59866015  0.75721739  0.71257854     0.36100
H4255       H  0.66296977  0.74299330  0.73298768     0.16500
O4256       O  0.65174384  0.70022275  0.70254108    -0.60400
H4257       H  0.57008768  0.73408581  0.68481926     0.16500
O4258       O  0.58134818  0.77618987  0.71558144    -0.60500
H4259       H  0.55758568  0.75870234  0.72132330     0.43500
H4260       H  0.64074793  0.68053231  0.71277566     0.43400
C4261       C  0.59265975  0.89371788  0.69115338    -0.05600
C4262       C  0.56727245  0.86380706  0.70278852    -0.33000
C4263       C  0.57608652  0.85466667  0.72165770     0.36200
C4264       C  0.61133899  0.87389665  0.72879492    -0.06000
C4265       C  0.63769505  0.89992024  0.71589156    -0.32900
C4266       C  0.62878624  0.91033288  0.69754968     0.36100
H4267       H  0.53910786  0.85068085  0.69916313     0.16500
O4268       O  0.54934071  0.82938919  0.73385256    -0.60400
H4269       H  0.66552194  0.91400730  0.72051322     0.16500
O4270       O  0.65568790  0.93822346  0.68690108    -0.60500
H4271       H  0.66101886  0.96001070  0.69492125     0.43500
H4272       H  0.54263239  0.80609155  0.72728833     0.43400
C4273       C  0.56312176  0.62685159  0.89125976    -0.05600
C4274       C  0.52632847  0.60467996  0.88757397    -0.33000
C4275       C  0.51436669  0.58321867  0.86983199     0.36200
C4276       C  0.53934290  0.58350474  0.85546776    -0.06000
C4277       C  0.57523819  0.59971324  0.86129086    -0.32900
C4278       C  0.58722476  0.62076556  0.87915047     0.36100
H4279       H  0.50641858  0.60575546  0.89720463     0.16500
O4280       O  0.47829093  0.56388427  0.86615497    -0.60400
H4281       H  0.59463385  0.59796452  0.85136218     0.16500
O4282       O  0.62322714  0.63858754  0.88316848    -0.60500
H4283       H  0.63411817  0.65856768  0.87312116     0.43500
H4284       H  0.46943849  0.54187839  0.87455056     0.43400
C4285       C  0.62466358  0.76452357  0.82904344    -0.05600
C4286       C  0.65204236  0.76429476  0.84051900    -0.33000
C4287       C  0.64798430  0.75628530  0.86162111     0.36200
C4288       C  0.61658165  0.74974380  0.87217057    -0.06000
C4289       C  0.58942049  0.75075432  0.86068991    -0.32900
C4290       C  0.59297359  0.75730911  0.83931741     0.36100
H4291       H  0.67635568  0.76876743  0.83289682     0.16500
O4292       O  0.67204525  0.74893666  0.87092032    -0.60400
H4293       H  0.56361272  0.74230362  0.86778402     0.16500
O4294       O  0.56486850  0.75548396  0.82857181    -0.60500
H4295       H  0.54896917  0.72974516  0.82545372     0.43500
H4296       H  0.69511526  0.77172214  0.87084376     0.43400
C4297       C  0.86825032  0.95189478  0.88802389    -0.05600
C4298       C  0.89217344  0.93904074  0.88580818    -0.33000
C4299       C  0.91437186  0.94786971  0.86838431     0.36200
C4300       C  0.91328559  0.97029984  0.85288525    -0.06000
C4301       C  0.89395350  0.98773466  0.85680268    -0.32900
C4302       C  0.87202855  0.97927637  0.87429244     0.36100
H4303       H  0.89214324  0.92000263  0.89653648     0.16500
O4304       O  0.93568528  0.93288072  0.86626202    -0.60400
H4305       H  0.89421149  0.00661758  0.84574343     0.16500
O4306       O  0.85111342  0.99478927  0.87646290    -0.60500
H4307       H  0.83240197  0.98373088  0.86566924     0.43500
H4308       H  0.95839542  0.94984361  0.87321375     0.43400
C4309       C  0.74493882  0.88295382  0.87223521    -0.05600
C4310       C  0.74049410  0.90935887  0.86232905    -0.33000
C4311       C  0.73392976  0.90791486  0.84106174     0.36200
C4312       C  0.73010888  0.87875585  0.82916312    -0.06000
C4313       C  0.73364618  0.85181515  0.83888143    -0.32900
C4314       C  0.74214361  0.85432075  0.85996926     0.36100
H4315       H  0.74736668  0.93405390  0.87035323     0.16500
O4316       O  0.73532506  0.93696441  0.83148019    -0.60400
H4317       H  0.73118292  0.82939102  0.82994745     0.16500
O4318       O  0.75234125  0.83133066  0.86776567    -0.60500
H4319       H  0.77791035  0.84175838  0.86392487     0.43500
H4320       H  0.72180558  0.94494370  0.84034907     0.43400
C4321       C  0.54583965  0.93573075  0.89230007    -0.05600
C4322       C  0.56094667  0.97253167  0.88869291    -0.33000
C4323       C  0.55307877  0.98482279  0.87061293     0.36200
C4324       C  0.52911109  0.96020221  0.85593356    -0.06000
C4325       C  0.50929144  0.92413033  0.86134135    -0.32900
C4326       C  0.51692043  0.91176121  0.87940134     0.36100
H4327       H  0.58162999  0.99209570  0.89854799     0.16500
O4328       O  0.57021157  0.02096560  0.86714540    -0.60400
H4329       H  0.48933396  0.90487699  0.85088333     0.16500
O4330       O  0.50033022  0.87545389  0.88209965    -0.60500
H4331       H  0.47727291  0.86887503  0.88900087     0.43500
H4332       H  0.59342634  0.02692429  0.86066823     0.43400
C4333       C  0.61613900  0.86996194  0.83021618    -0.05600
C4334       C  0.64275040  0.90149763  0.83935389    -0.33000
C4335       C  0.64186368  0.90791961  0.86055539     0.36200
C4336       C  0.61448881  0.88200331  0.87334136    -0.06000
C4337       C  0.58804403  0.85029429  0.86398454    -0.32900
C4338       C  0.58837620  0.84447221  0.84274626     0.36100
H4339       H  0.66363650  0.92186319  0.82985088     0.16500
O4340       O  0.66524764  0.94138463  0.86810174    -0.60400
H4341       H  0.56412526  0.83207368  0.87248783     0.16500
O4342       O  0.55983700  0.81496550  0.83417521    -0.60500
H4343       H  0.54180805  0.82223072  0.83144691     0.43500
H4344       H  0.65386828  0.95599678  0.86538994     0.43400
loop_ 
_geom_bond_atom_site_label_1 
_geom_bond_atom_site_label_2 
_geom_bond_distance 
_geom_bond_site_symmetry_2 
_ccdc_geom_bond_type 
C1            C2   1.553       .  S
C1            C7   1.532       .  S
C1            C5   1.497       .  S
C1         C1063   1.530       .  S
C2            H9   1.080       .  S
C2            C3   1.386       .  D
C3            C4   1.572       .  S
C3           C82   1.556       .  S
C4            C8   1.563       .  S
C4            C6   1.574       .  S
C4           H10   1.107       .  S
C5           H11   1.091       .  S
C5            C6   1.339       .  D
C6         C1078   1.478       .  S
C7           H12   1.083       .  S
C7            C8   1.372       .  D
C8          C172   1.542       .  S
C13          C14   1.554       .  S
C13          C19   1.533       .  S
C13          C17   1.493       .  S
C13        C1039   1.528       .  S
C14          H21   1.078       .  S
C14          C15   1.385       .  D
C15          C16   1.575       .  S
C15         C208   1.563       .  S
C16          C20   1.568       .  S
C16          C18   1.581       .  S
C16          H22   1.107       .  S
C17          H23   1.092       .  S
C17          C18   1.337       .  D
C18        C1051   1.483       .  S
C19          H24   1.083       .  S
C19          C20   1.371       .  D
C20          C79   1.549       .  S
C25          C26   1.550       .  S
C25          C31   1.534       .  S
C25          C29   1.498       .  S
C25        C1015   1.531       .  S
C26          H33   1.077       .  S
C26          C27   1.381       .  D
C27          C28   1.566       .  S
C27         C173   1.553       .  S
C28          C32   1.567       .  S
C28          C30   1.575       .  S
C28          H34   1.105       .  S
C29          H35   1.091       .  S
C29          C30   1.341       .  D
C30        C1030   1.479       .  S
C31          H36   1.083       .  S
C31          C32   1.375       .  D
C32         C205   1.549       .  S
O37          C52   1.252       .  A
O37         Al45   1.847       .  S
C38          O48   1.251       .  A
C38          O39   1.269       .  A
C38        C1027   1.480       .  S
O39         Al41   1.939       .  S
O40          C42   1.253       .  A
O40         Al41   1.856       .  S
Al41         O49   1.871       .  S
Al41         O51   1.929       .  S
Al41         O50   1.777       .  S
C42          O55   1.267       .  A
C42        C1075   1.477       .  S
O43          C53   1.250       .  A
O43         Al45   1.847       .  S
O44          C57   1.251       .  A
O44         Al54   1.852       .  S
Al45         O58   1.924       .  S
Al45         O55   1.928       .  S
Al45         O50   1.777       .  S
O46          C53   1.269       .  A
O46         Al54   1.939       .  S
O47          C56   1.267       .  A
O47         Al54   1.923       .  S
O48         Al54   1.842       .  S
O49          C56   1.254       .  A
O50         Al54   1.778       .  S
O51          C52   1.266       .  A
C52        C1006   1.477       .  S
C53        C1054   1.479       .  S
C56         C991   1.481       .  S
C57          O58   1.268       .  A
C57         C982   1.474       .  S
N59          C64   1.366       .  A
N59        C1149   1.364   1_545  A
N59          H91   1.030       .  S
N60          C67   1.369       .  A
N60          C68   1.369       .  A
N61          C66   1.367       .  A
N61        C1151   1.369   1_545  A
N61          H92   1.030       .  S
N62          C69   1.372       .  A
N62          C70   1.370       .  A
C63        N1145   1.365       .  A
C63          C71   1.387       .  A
C63          C79   1.445       .  A
C64          C80   1.446       .  A
C64          C72   1.388       .  A
C65        N1147   1.369       .  A
C65          C73   1.384       .  A
C65          C82   1.447       .  A
C66          C81   1.454       .  A
C66          C74   1.390       .  A
C67          C79   1.439       .  A
C67          C75   1.374       .  A
C68          C82   1.440       .  A
C68          C76   1.376       .  A
C69          C77   1.374   1_556  A
C69          C80   1.445       .  A
C70          C78   1.378   1_556  A
C70          C81   1.449       .  A
C71        C1158   1.365       .  A
C71          H83   1.079       .  S
C72        C1157   1.366   1_545  A
C72          H84   1.079       .  S
C73        C1160   1.369       .  A
C73          H85   1.079       .  S
C74        C1159   1.370   1_545  A
C74          H86   1.078       .  S
C75          C76   1.351       .  A
C75          H87   1.061       .  S
C76          H88   1.062       .  S
C77          C78   1.354       .  A
C77          H89   1.064       .  S
C78          H90   1.061       .  S
C80         C124   1.558       .  S
C81          C95   1.558       .  S
C93          C94   1.548       .  S
C93          C99   1.534       .  S
C93          C97   1.497       .  S
C93         C955   1.526       .  S
C94         H101   1.079       .  S
C94          C95   1.382   1_554  D
C95          C96   1.574   1_556  S
C96         C100   1.576   1_554  S
C96          C98   1.585       .  S
C96         H102   1.107   1_554  S
C97         H103   1.091       .  S
C97          C98   1.338       .  D
C98         C970   1.490       .  S
C99         H104   1.081       .  S
C99         C100   1.371   1_554  D
C100        C206   1.557       .  S
C105        C106   1.541       .  S
C105        C111   1.544       .  S
C105        C109   1.496       .  S
C105        C931   1.529       .  S
C106        H113   1.078   1_554  S
C106        C107   1.376   1_554  D
C107        C108   1.574   1_556  S
C107        C207   1.552       .  S
C108        C112   1.567   1_554  S
C108        C110   1.580       .  S
C108        H114   1.107   1_554  S
C109        H115   1.092       .  S
C109        C110   1.338       .  D
C110        C946   1.485       .  S
C111        H116   1.079       .  S
C111        C112   1.376   1_554  D
C112        C171   1.552       .  S
C117        C118   1.541       .  S
C117        C123   1.550       .  S
C117        C121   1.495       .  S
C117        C907   1.535       .  S
C118        H125   1.076   1_554  S
C118        C119   1.379   1_554  D
C119        C120   1.565   1_556  S
C119        C174   1.547       .  S
C120        C124   1.567   1_554  S
C120        C122   1.574       .  S
C120        H126   1.106   1_554  S
C121        H127   1.091       .  S
C121        C122   1.339       .  D
C122        C919   1.476       .  S
C123        H128   1.081       .  S
C123        C124   1.380   1_554  D
O129        C144   1.258       .  A
O129       Al137   1.877       .  S
C130        O140   1.253       .  A
C130        O131   1.267       .  A
C130        C967   1.486       .  S
O131       Al133   1.934       .  S
O132        C134   1.250       .  A
O132       Al133   1.844       .  S
Al133       O141   1.847       .  S
Al133       O143   1.932       .  S
Al133       O142   1.777       .  S
C134        O147   1.267       .  A
C134        C922   1.473       .  S
O135        C145   1.255       .  A
O135       Al137   1.865       .  S
O136        C149   1.255       .  A
O136       Al146   1.869       .  S
Al137       O150   1.922       .  S
Al137       O147   1.930       .  S
Al137       O142   1.783       .  S
O138        C145   1.270       .  A
O138       Al146   1.934       .  S
O139        C148   1.268       .  A
O139       Al146   1.934       .  S
O140       Al146   1.869       .  S
O141        C148   1.252       .  A
O142       Al146   1.776       .  S
O143        C144   1.268       .  A
C144        C871   1.485       .  S
C145        C943   1.480       .  S
C148        C895   1.480       .  S
C149        O150   1.264       .  A
C149        C883   1.480       .  S
N151        C155   1.366       .  A
N151       C2328   1.362       .  A
N151        H183   1.028       .  S
N152        C159   1.369       .  A
N152        C160   1.367       .  A
N153        C157   1.364       .  A
N153       C2330   1.367       .  A
N153        H184   1.028       .  S
N154        C161   1.367       .  A
N154        C162   1.368       .  A
C155        C163   1.387       .  A
C155        C171   1.444       .  A
C156       N2323   1.362   1_455  A
C156        C172   1.441       .  A
C156        C164   1.386       .  A
C157        C165   1.385       .  A
C157        C174   1.443       .  A
C158       N2325   1.367   1_455  A
C158        C173   1.446       .  A
C158        C166   1.387       .  A
C159        C171   1.438       .  A
C159        C167   1.372   1_556  A
C160        C174   1.441       .  A
C160        C168   1.377   1_556  A
C161        C169   1.376       .  A
C161        C172   1.439       .  A
C162        C170   1.377       .  A
C162        C173   1.440       .  A
C163       C2336   1.363       .  A
C163        H175   1.078       .  S
C164       C2335   1.363   1_455  A
C164        H176   1.080       .  S
C165       C2338   1.365       .  A
C165        H177   1.080       .  S
C166       C2337   1.365   1_455  A
C166        H178   1.077       .  S
C167        C168   1.350       .  A
C167        H179   1.060       .  S
C168        H180   1.060       .  S
C169        C170   1.356       .  A
C169        H181   1.061       .  S
C170        H182   1.066       .  S
N185        C190   1.368       .  A
N185        C189   1.364       .  A
N185        H217   1.031       .  S
N186        C193   1.370       .  A
N186        C194   1.370       .  A
N187        C192   1.368       .  A
N187        C191   1.371       .  A
N187        H218   1.031       .  S
N188        C195   1.369       .  A
N188        C196   1.367       .  A
C189        C197   1.385       .  A
C189        C205   1.443       .  A
C190        C206   1.449       .  A
C190        C198   1.388       .  A
C191        C199   1.389       .  A
C191        C208   1.454       .  A
C192        C207   1.448       .  A
C192        C200   1.385       .  A
C193        C205   1.441       .  A
C193        C201   1.375       .  A
C194        C208   1.445       .  A
C194        C202   1.376       .  A
C195        C203   1.372   1_556  A
C195        C206   1.436       .  A
C196        C204   1.375   1_556  A
C196        C207   1.438       .  A
C197        C198   1.366       .  A
C197        H209   1.081       .  S
C198        H210   1.078       .  S
C199        C200   1.370       .  A
C199        H211   1.077       .  S
C200        H212   1.080       .  S
C201        C202   1.351       .  A
C201        H213   1.064       .  S
C202        H214   1.061       .  S
C203        C204   1.347       .  A
C203        H215   1.061       .  S
C204        H216   1.058       .  S
C219       C2392   1.540       .  S
C219       C2397   1.545       .  S
C219       C2395   1.494       .  S
C219        C847   1.530       .  S
C220       C2391   1.541   1_455  S
C220       H2399   1.076   1_455  S
C220        C221   1.382       .  D
C221        C222   1.571       .  S
C221        C355   1.550       .  S
C222        C226   1.567       .  S
C222        C224   1.578       .  S
C222        H228   1.107       .  S
C223       C2391   1.495   1_455  S
C223        H229   1.092       .  S
C223        C224   1.339       .  D
C224        C862   1.482       .  S
C225       C2391   1.544   1_455  S
C225       H2402   1.081   1_455  S
C225        C226   1.372       .  D
C226        C424   1.550       .  S
H227       C2392   1.077       .  S
H230       C2397   1.081       .  S
C231        C232   1.547       .  S
C231        C237   1.536       .  S
C231        C235   1.499       .  S
C231        C826   1.531       .  S
C232        H239   1.079       .  S
C232        C233   1.379       .  D
C233        C234   1.566       .  S
C233        C392   1.548       .  S
C234        C238   1.568       .  S
C234        C236   1.576       .  S
C234        H240   1.106       .  S
C235        H241   1.091       .  S
C235        C236   1.341       .  D
C236        C838   1.482       .  S
C237        H242   1.078       .  S
C237        C238   1.375       .  D
C238        C358   1.551       .  S
C243       C1330   1.548       .  S
C243       C1335   1.539       .  S
C243       C1333   1.496   1_545  S
C243        C802   1.532       .  S
C244       C1329   1.549       .  S
C244       H1337   1.076       .  S
C244        C245   1.378       .  D
C245        C246   1.573       .  S
C245        C425   1.557       .  S
C246        C250   1.566       .  S
C246        C248   1.578       .  S
C246        H252   1.107       .  S
C247       C1329   1.497       .  S
C247        H253   1.091       .  S
C247        C248   1.340       .  D
C248        C811   1.477       .  S
C249       C1329   1.536       .  S
C249       H1340   1.084       .  S
C249        C250   1.375       .  D
C250        C389   1.551       .  S
H251       C1330   1.075       .  S
H254       C1335   1.084       .  S
O255        C270   1.254       .  A
O255       Al263   1.862       .  S
C256        O266   1.252       .  A
C256        O257   1.268       .  A
C256        C814   1.475       .  S
O257       Al259   1.932       .  S
O258        C260   1.252       .  A
O258       Al259   1.854       .  S
Al259       O267   1.865       .  S
Al259       O269   1.921       .  S
Al259       O268   1.777       .  S
C260        O273   1.268       .  A
C260        C859   1.477       .  S
O261        C271   1.252       .  A
O261       Al263   1.857       .  S
O262        C275   1.254       .  A
O262       Al272   1.864       .  S
Al263       O276   1.935       .  S
Al263       O273   1.935       .  S
Al263       O268   1.775       .  S
O264        C271   1.267       .  A
O264       Al272   1.932       .  S
O265        C274   1.266       .  A
O265       Al272   1.921       .  S
O266       Al272   1.847       .  S
O267        C274   1.254       .  A
O268       Al272   1.779       .  S
O269        C270   1.267       .  A
C270        C787   1.477       .  S
C271        C835   1.480       .  S
C274        C763   1.477       .  S
C275        O276   1.269       .  A
C275        C778   1.485       .  S
C277        C278   1.548       .  S
C277        C283   1.536       .  S
C277        C281   1.496       .  S
C277        C898   1.534       .  S
C278        H285   1.076       .  S
C278        C279   1.380       .  D
C279        C280   1.571       .  S
C279       C1512   1.551       .  S
C280        C284   1.577       .  S
C280        C282   1.578       .  S
C280        H286   1.108       .  S
C281        H287   1.091       .  S
C281        C282   1.341       .  D
C282        C751   1.480       .  S
C283        H288   1.080       .  S
C283        C284   1.372       .  D
C284        C357   1.556       .  S
C289        C290   1.560       .  S
C289        C295   1.521       .  S
C289        C293   1.502       .  S
C289        C886   1.536       .  S
C290        H297   1.074       .  S
C290        C291   1.382       .  D
C291        C292   1.569       .  S
C291        C391   1.564       .  S
C292        C296   1.578       .  S
C292        C294   1.581       .  S
C292        H298   1.108       .  S
C293        H299   1.090       .  S
C293        C294   1.348       .  D
C294        C739   1.502       .  S
C295        H300   1.085       .  S
C295        C296   1.369       .  D
C296       C2595   1.540       .  S
C301        C302   1.550       .  S
C301        C307   1.538       .  S
C301        C305   1.499       .  S
C301        C874   1.537       .  S
C302        H309   1.074       .  S
C302        C303   1.382       .  D
C303        C304   1.563       .  S
C303       C2528   1.555       .  S
C304        C308   1.562       .  S
C304        C306   1.571       .  S
C304        H310   1.105       .  S
C305        H311   1.091       .  S
C305        C306   1.342       .  D
C306        C727   1.472       .  S
C307        H312   1.084       .  S
C307        C308   1.377       .  D
C308       C1476   1.552       .  S
O313        C328   1.255       .  A
O313      Al2493   1.864       .  S
C314        O324   1.258       .  A
C314        O315   1.268       .  A
C314        C742   1.480       .  S
O315       Al317   1.929       .  S
O316        C318   1.251       .  A
O316      Al1403   1.847   1_545  S
Al317       O325   1.853       .  S
Al317      O1402   1.841       .  S
Al317      O1413   1.925       .  S
Al317      O1412   1.776       .  S
C318        O331   1.265       .  A
C318        C730   1.475       .  S
O319        C329   1.252       .  A
O319       Al321   1.855       .  S
O320        C333   1.260       .  A
O320      Al1416   1.883   1_545  S
Al321       O334   1.913       .  S
Al321      O2485   1.864   1_455  S
Al321      O2503   1.921   1_455  S
Al321      O2498   1.769   1_455  S
O322        C329   1.267       .  A
O322      Al1416   1.937   1_545  S
O323        C332   1.266       .  A
O323      Al2502   1.929       .  S
O324      Al2502   1.875       .  S
O325        C332   1.253       .  A
O326      Al1403   1.778   1_545  S
O326      Al2493   1.769       .  S
O326      Al3588   1.780   1_545  S
O327        C328   1.267       .  A
O327      Al1403   1.927   1_545  S
C328        C910   1.481       .  S
C329        C754   1.480       .  S
Al330      O1406   1.886       .  S
Al330      O1408   1.935       .  S
Al330      O2495   1.929   1_455  S
Al330      O2496   1.874   1_455  S
Al330      O3584   1.779   1_455  S
O331      Al2493   1.921       .  S
C332        C934   1.473       .  S
C333        O334   1.268       .  A
C333        C958   1.477       .  S
N335        C340   1.366       .  A
N335        C339   1.366       .  A
N335        H367   1.029       .  S
N336        C343   1.368       .  A
N336        C344   1.368       .  A
N337        C342   1.367       .  A
N337        C341   1.366       .  A
N337        H368   1.030       .  S
N338        C345   1.368       .  A
N338        C346   1.371       .  A
C339        C347   1.384   1_455  A
C339        C355   1.444       .  A
C340        C356   1.447   1_455  A
C340       C2520   1.388   1_455  A
C341        C349   1.383       .  A
C341        C358   1.443       .  A
C342        C357   1.450       .  A
C342        C350   1.388       .  A
C343        C355   1.438       .  A
C343        C351   1.377       .  A
C344        C358   1.435       .  A
C344        C352   1.373       .  A
C345        C353   1.378       .  A
C345        C356   1.447   1_455  A
C346        C354   1.374       .  A
C346        C357   1.437       .  A
C347       C2520   1.365       .  A
C347       H2531   1.080       .  S
C348       C2512   1.389       .  A
C348       C2519   1.366       .  A
C348        H360   1.078       .  S
C349        C350   1.362       .  A
C349        H361   1.080       .  S
C350        H362   1.079       .  S
C351        C352   1.349       .  A
C351        H363   1.061       .  S
C352        H364   1.062       .  S
C353        C354   1.356       .  A
C353        H365   1.058       .  S
C354        H366   1.069       .  S
C356       C2475   1.555       .  S
H359       C2519   1.081       .  S
N369        C374   1.364       .  A
N369        C373   1.366       .  A
N369        H401   1.029       .  S
N370        C377   1.370       .  A
N370        C378   1.367       .  A
N371        C376   1.369       .  A
N371        C375   1.365       .  A
N371        H402   1.031       .  S
N372        C379   1.371       .  A
N372        C380   1.370       .  A
C373        C381   1.386       .  A
C373        C389   1.442       .  A
C374        C390   1.442       .  A
C374       C1468   1.387       .  A
C375        C383   1.384       .  A
C375        C392   1.444       .  A
C376        C391   1.450       .  A
C376        C384   1.389       .  A
C377        C389   1.439       .  A
C377        C385   1.375       .  A
C378        C392   1.440       .  A
C378        C386   1.377       .  A
C379        C387   1.374       .  A
C379        C390   1.443       .  A
C380        C388   1.370       .  A
C380        C391   1.444       .  A
C381       C1468   1.363       .  A
C381       H1479   1.079       .  S
C382       C1460   1.387       .  A
C382       C1467   1.363       .  A
C382        H394   1.079       .  S
C383        C384   1.367       .  A
C383        H395   1.080       .  S
C384        H396   1.077       .  S
C385        C386   1.352       .  A
C385        H397   1.062       .  S
C386        H398   1.063       .  S
C387        C388   1.347       .  A
C387        H399   1.060       .  S
C388        H400   1.051       .  S
C390       C1394   1.550       .  S
H393       C1467   1.079       .  S
N403        C408   1.365       .  A
N403        C407   1.364       .  A
N403        H435   1.031       .  S
N404        C411   1.366       .  A
N404        C412   1.365       .  A
N405        C410   1.368       .  A
N405        C409   1.367       .  A
N405        H436   1.034       .  S
N406        C413   1.369       .  A
N406        C414   1.368       .  A
C407        C423   1.440   1_455  A
C407       C2587   1.385   1_455  A
C408        C424   1.445       .  A
C408        C416   1.389   1_455  A
C409        C426   1.441       .  A
C409       C1503   1.382       .  A
C410        C425   1.453       .  A
C410        C418   1.392       .  A
C411        C423   1.426   1_455  A
C411        C419   1.374       .  A
C412        C426   1.431       .  A
C412        C420   1.377       .  A
C413        C421   1.373       .  A
C413        C424   1.438       .  A
C414        C422   1.376       .  A
C414        C425   1.443       .  A
C415       C2579   1.385       .  A
C415       C2588   1.367       .  A
C415        H427   1.080       .  S
C416       C2587   1.367       .  A
C416       H2600   1.079       .  S
C417       C1495   1.382       .  A
C417       C1504   1.369       .  A
C417        H429   1.080       .  S
C418       C1503   1.370       .  A
C418       H1516   1.076       .  S
C419        C420   1.366       .  A
C419        H431   1.078       .  S
C420        H432   1.068       .  S
C421        C422   1.353       .  A
C421        H433   1.063       .  S
C422        H434   1.058       .  S
C423       C2468   1.539       .  S
C426       C1365   1.548       .  S
H428       C2588   1.079       .  S
H430       C1504   1.077       .  S
C437        C438   1.551       .  S
C437        C443   1.533       .  S
C437        C441   1.495       .  S
C437        C979   1.526       .  S
C438        H445   1.078       .  S
C438        C439   1.385       .  D
C439        C440   1.574       .  S
C439        C575   1.561       .  S
C440        C444   1.568       .  S
C440        C442   1.582       .  S
C440        H446   1.106       .  S
C441        H447   1.091       .  S
C441        C442   1.339       .  D
C442        C715   1.482       .  S
C443        H448   1.081       .  S
C443        C444   1.370       .  D
C444       C1728   1.555       .  S
C449        C450   1.548       .  S
C449        C455   1.532       .  S
C449        C453   1.495       .  S
C449        C994   1.528       .  S
C450        H457   1.078       .  S
C450        C451   1.383       .  D
C451        C452   1.578       .  S
C451       C2813   1.559   1_455  S
C452        C456   1.563       .  S
C452        C454   1.580       .  S
C452        H458   1.108       .  S
C453        H459   1.091       .  S
C453        C454   1.339       .  D
C454        C703   1.485       .  S
C455        H460   1.082       .  S
C455        C456   1.371       .  D
C456        C609   1.544       .  S
C461        C462   1.544       .  S
C461        C467   1.538       .  S
C461        C465   1.497       .  S
C461       C1003   1.531       .  S
C462        H469   1.073       .  S
C462        C463   1.378       .  D
C463        C464   1.573       .  S
C463       C1696   1.552       .  S
C464        C468   1.570       .  S
C464        C466   1.577       .  S
C464        H470   1.107       .  S
C465        H471   1.091       .  S
C465        C466   1.340       .  D
C466        C691   1.483       .  S
C467        H472   1.082       .  S
C467        C468   1.375       .  D
C468       C2746   1.551   1_455  S
O473       C1574   1.253   1_545  A
O473       Al481   1.863       .  S
C474        O475   1.269       .  A
C474       O1570   1.253       .  A
C474        C718   1.479       .  S
O475       Al477   1.938       .  S
O476       C2650   1.251       .  A
O476       Al477   1.845       .  S
Al477       O485   1.860       .  S
Al477       O487   1.927       .  S
Al477      O1572   1.777       .  S
C478       O2648   1.251   1_455  A
C478       O1577   1.268       .  A
C478        C694   1.482       .  S
O479        C489   1.252       .  A
O479       Al481   1.862       .  S
O480       C2665   1.253       .  A
O480       Al490   1.862       .  S
Al481       O494   1.928       .  S
Al481       O491   1.934   1_545  S
Al481      O2658   1.782   1_455  S
O482       C2661   1.268       .  A
O482       Al490   1.931       .  S
O483       C1578   1.266   1_545  A
O483       Al490   1.926       .  S
O484       C1560   1.253   1_545  A
O484       Al490   1.851       .  S
O485        C492   1.252       .  A
O486       Al490   1.777       .  S
O486      Al1563   1.777   1_545  S
O486      Al2653   1.782       .  S
O487       C2660   1.268       .  A
C488       O1559   1.253       .  A
C488       O2659   1.268       .  A
C488       C1066   1.483       .  S
C489       O2654   1.268       .  A
C489        C706   1.479       .  S
O491       C1564   1.268       .  A
C492       O1569   1.266       .  A
C492       C1042   1.478       .  S
C493        O494   1.268       .  A
C493       O2652   1.253   1_455  A
C493       C1018   1.480       .  S
C495        C496   1.558       .  S
C495        C501   1.516       .  S
C495        C499   1.499       .  S
C495       C1852   1.527   1_545  S
C496       H1589   1.078   1_545  S
C496        C497   1.382       .  D
C497        C498   1.570       .  S
C497        C607   1.556       .  S
C498        C502   1.586       .  S
C498        C500   1.579       .  S
C498        H504   1.109       .  S
C499        H505   1.089       .  S
C499        C500   1.343       .  D
C500        C679   1.500       .  S
C501       H1592   1.085   1_545  S
C501        C502   1.368       .  D
C502        C643   1.540       .  S
H503       C1582   1.077       .  S
H506       C1587   1.085       .  S
C507        C508   1.550       .  S
C507        C513   1.534       .  S
C507        C511   1.492       .  S
C507       C2962   1.529       .  S
C508       H2687   1.077       .  S
C508        C509   1.382       .  D
C509        C510   1.570       .  S
C509        C644   1.552       .  S
C510        C514   1.568       .  S
C510        C512   1.577       .  S
C510        H516   1.108       .  S
C511        H517   1.092       .  S
C511        C512   1.338       .  D
C512        C670   1.477       .  S
C513       H2690   1.081       .  S
C513        C514   1.374       .  D
C514        C573   1.549       .  S
H515       C2680   1.077   1_455  S
H518       C2685   1.081   1_455  S
C519        C520   1.556       .  S
C519        C525   1.532       .  S
C519        C523   1.493       .  S
C519        C775   1.532       .  S
C520        H527   1.080       .  S
C520        C521   1.387       .  D
C521        C522   1.568       .  S
C521        C576   1.552       .  S
C522        C526   1.563       .  S
C522        C524   1.571       .  S
C522        H528   1.108       .  S
C523        H529   1.092       .  S
C523        C524   1.337       .  D
C524        C655   1.475       .  S
C525        H530   1.083       .  S
C525        C526   1.374       .  D
C526        C608   1.541       .  S
O531        C546   1.263       .  A
O531       Al539   1.882       .  S
C532        O542   1.248       .  A
C532        O533   1.267       .  A
C532        C658   1.474       .  S
O533       Al535   1.929       .  S
O534        C536   1.253       .  A
O534       Al535   1.869       .  S
Al535       O543   1.878       .  S
Al535       O545   1.920       .  S
Al535       O544   1.769       .  S
C536        O549   1.260       .  A
C536        C667   1.475       .  S
O537        C547   1.261       .  A
O537       Al539   1.889       .  S
O538        C551   1.251       .  A
O538       Al548   1.853       .  S
Al539       O552   1.929       .  S
Al539       O549   1.919       .  S
Al539       O544   1.780       .  S
O540        C547   1.271       .  A
O540       Al548   1.939       .  S
O541        C550   1.263       .  A
O541       Al548   1.906       .  S
O542       Al548   1.822       .  S
O543        C550   1.255       .  A
O544       Al548   1.781       .  S
O545        C546   1.270       .  A
C546        C850   1.479       .  S
C547        C682   1.486       .  S
C550        C823   1.481       .  S
C551        O552   1.265       .  A
C551        C799   1.478       .  S
N553        C558   1.365       .  A
N553        C557   1.365       .  A
N553        H585   1.031       .  S
N554        C561   1.369       .  A
N554        C562   1.367       .  A
N555        C560   1.370       .  A
N555        C559   1.368       .  A
N555        H586   1.033       .  S
N556        C563   1.371       .  A
N556        C564   1.368       .  A
C557        C565   1.386       .  A
C557        C573   1.444       .  A
C558        C574   1.442       .  A
C558        C566   1.385       .  A
C559        C567   1.382       .  A
C559        C576   1.443       .  A
C560        C575   1.455       .  A
C560        C568   1.391       .  A
C561        C573   1.436       .  A
C561        C569   1.375       .  A
C562        C576   1.439       .  A
C562        C570   1.376       .  A
C563        C571   1.372       .  A
C563        C574   1.436       .  A
C564        C572   1.378       .  A
C564        C575   1.448       .  A
C565        C566   1.361       .  A
C565        H577   1.079       .  S
C566       H2750   1.080       .  S
C567        C568   1.369       .  A
C567        H579   1.080       .  S
C568        H580   1.076       .  S
C569        C570   1.354       .  A
C569        H581   1.064       .  S
C570        H582   1.060       .  S
C571        C572   1.351       .  A
C571        H583   1.067       .  S
C572        H584   1.055       .  S
C574       C2640   1.551       .  S
H578       C2738   1.080       .  S
N587        C592   1.372       .  A
N587        C591   1.369       .  A
N587        H619   1.042       .  S
N588        C595   1.365       .  A
N588        C596   1.364       .  A
N589        C594   1.370       .  A
N589        C593   1.369       .  A
N589        H620   1.041       .  S
N590        C597   1.360       .  A
N590        C598   1.361       .  A
C591        C599   1.368       .  A
C591        C607   1.433       .  A
C592        C608   1.430       .  A
C592        C600   1.373       .  A
C593        C601   1.376       .  A
C593        C610   1.436       .  A
C594        C609   1.431       .  A
C594        C602   1.372       .  A
C595        C607   1.438       .  A
C595        C603   1.386   1_545  A
C596        C610   1.438       .  A
C596        C604   1.384   1_545  A
C597        C605   1.384       .  A
C597        C608   1.429       .  A
C598        C606   1.385       .  A
C598        C609   1.430       .  A
C599        C600   1.352       .  A
C599        H611   1.054       .  S
C600        H612   1.064       .  S
C601        C602   1.354       .  A
C601        H613   1.060       .  S
C602        H614   1.061       .  S
C603        C604   1.367       .  A
C603        H615   1.077       .  S
C604       H1702   1.080       .  S
C605        C606   1.359       .  A
C605        H617   1.081       .  S
C606        H618   1.080       .  S
C610       C1549   1.551   1_545  S
H616       C1690   1.080       .  S
N621        C626   1.373       .  A
N621        C625   1.371       .  A
N621        H653   1.040       .  S
N622        C629   1.369       .  A
N622        C630   1.369       .  A
N623        C628   1.368       .  A
N623        C627   1.366       .  A
N623        H654   1.042       .  S
N624        C631   1.365       .  A
N624        C632   1.365       .  A
C625        C633   1.377       .  A
C625        C641   1.441       .  A
C626        C642   1.439       .  A
C626        C634   1.375       .  A
C627        C635   1.381       .  A
C627        C644   1.435       .  A
C628        C643   1.423       .  A
C628        C636   1.373       .  A
C629        C641   1.447       .  A
C629        C637   1.386       .  A
C630        C644   1.444       .  A
C630        C638   1.384       .  A
C631        C639   1.386   1_545  A
C631        C642   1.440       .  A
C632        C640   1.383       .  A
C632        C643   1.435       .  A
C633        C634   1.352       .  A
C633        H645   1.062       .  S
C634        H646   1.063       .  S
C635        C636   1.359       .  A
C635        H647   1.061       .  S
C636        H648   1.073       .  S
C637        C638   1.365       .  A
C637       H2821   1.079       .  S
C638        H650   1.079       .  S
C639        C640   1.361   1_565  A
C639       H1737   1.080       .  S
C640        H652   1.081   1_545  S
C641       C2623   1.559       .  S
C642       C1530   1.554   1_545  S
H649       C2809   1.079       .  S
H651       C1725   1.079       .  S
C655        C656   1.413       .  A
C655        C660   1.414       .  A
C656        C657   1.399       .  A
C656        H661   1.082       .  S
C657        C658   1.403       .  A
C657        O662   1.369       .  S
C658        C659   1.404       .  A
C659        C660   1.391       .  A
C659        H663   1.084       .  S
C660        O664   1.374       .  S
O662        H666   0.991       .  S
O664        H665   0.992       .  S
C667        C668   1.402       .  A
C667        C672   1.406       .  A
C668        C669   1.399       .  A
C668        H673   1.084       .  S
C669        C670   1.420       .  A
C669        O674   1.372       .  S
C670        C671   1.407       .  A
C671        C672   1.394       .  A
C671        H675   1.083       .  S
C672        O676   1.370       .  S
O674        H678   0.992       .  S
O676        H677   0.992       .  S
C679        C680   1.393       .  A
C679        C684   1.426       .  A
C680        C681   1.402       .  A
C680        H685   1.080       .  S
C681        C682   1.414       .  A
C681        O686   1.362       .  S
C682        C683   1.393       .  A
C683        C684   1.401       .  A
C683        H687   1.083       .  S
C684        O688   1.376       .  S
O686        H690   0.991       .  S
O688        H689   0.992       .  S
C691        C692   1.414       .  A
C691        C696   1.413       .  A
C692        C693   1.404       .  A
C692        H697   1.082       .  S
C693        C694   1.404       .  A
C693        O698   1.370       .  S
C694        C695   1.402       .  A
C695        C696   1.394       .  A
C695       H2871   1.082   1_455  S
C696        O700   1.372   1_455  S
O698        H702   0.991       .  S
H699       C2867   1.082       .  S
O700       H2873   0.992       .  S
H701       O2872   0.992       .  S
C703        C704   1.410       .  A
C703        C708   1.415       .  A
C704        C705   1.404       .  A
C704        H709   1.084       .  S
C705        C706   1.407       .  A
C705        O710   1.378       .  S
C706        C707   1.400       .  A
C707        C708   1.400       .  A
C707        H711   1.082   1_455  S
C708        O712   1.370   1_455  S
O710        H714   0.992       .  S
O712        H713   0.992       .  S
C715        C716   1.413       .  A
C715        C720   1.411       .  A
C716        C717   1.402       .  A
C716        H721   1.083       .  S
C717        C718   1.406       .  A
C717        O722   1.371       .  S
C718        C719   1.402       .  A
C719        C720   1.395       .  A
C719       H1809   1.083       .  S
C720       O1810   1.374       .  S
O722        H726   0.992       .  S
H723       C1805   1.083   1_545  S
O724       C1806   1.374   1_545  S
O724        H725   0.990       .  S
C727        C728   1.409       .  A
C727        C732   1.411       .  A
C728        C729   1.397       .  A
C728        H733   1.083       .  S
C729        C730   1.406       .  A
C729        O734   1.371       .  S
C730        C731   1.405       .  A
C731        C732   1.391       .  A
C731        H735   1.084   1_545  S
C732        O736   1.373   1_545  S
O734       H2910   0.992       .  S
O736        H737   0.992   1_565  S
H738       O2906   0.992       .  S
C739        C740   1.419       .  A
C739        C744   1.396       .  A
C740        C741   1.399       .  A
C740        H745   1.084       .  S
C741        C742   1.401       .  A
C741        O746   1.371       .  S
C742        C743   1.409       .  A
C743        C744   1.404       .  A
C743        H747   1.079       .  S
C744        O748   1.369       .  S
O746        H750   0.992       .  S
O748        H749   0.989       .  S
C751        C752   1.413       .  A
C751        C756   1.411       .  A
C752        C753   1.401       .  A
C752        H757   1.082       .  S
C753        C754   1.407       .  A
C753        O758   1.371   1_545  S
C754        C755   1.404       .  A
C755        C756   1.394       .  A
C755        H759   1.082       .  S
C756        O760   1.372       .  S
O758        H762   0.992       .  S
O760        H761   0.992       .  S
C763        C764   1.398       .  A
C763        C768   1.413       .  A
C764        C765   1.397       .  A
C764        H769   1.084       .  S
C765        C766   1.422       .  A
C765        O770   1.374       .  S
C766       C1581   1.529       .  S
C766        C767   1.405       .  A
C767        C768   1.398       .  A
C767        H771   1.078       .  S
C768        O772   1.373       .  S
O770        H774   0.992       .  S
O772        H773   0.992       .  S
C775        C776   1.404       .  A
C775        C780   1.428       .  A
C776        C777   1.399       .  A
C776        H781   1.078       .  S
C777        C778   1.415       .  A
C777        O782   1.372       .  S
C778        C779   1.398       .  A
C779        C780   1.398       .  A
C779        H783   1.084       .  S
C780        O784   1.373       .  S
O782        H786   0.992       .  S
O784        H785   0.992       .  S
C787        C788   1.396       .  A
C787        C792   1.412       .  A
C788        C789   1.394       .  A
C788        H793   1.084       .  S
C789        C790   1.426       .  A
C789        O794   1.372       .  S
C790       C2679   1.530       .  S
C790        C791   1.407       .  A
C791        C792   1.397       .  A
C791        H795   1.077       .  S
C792        O796   1.371       .  S
O794        H798   0.992       .  S
O796        H797   0.992       .  S
C799        C800   1.408       .  A
C799        C804   1.404       .  A
C800        C801   1.395       .  A
C800        H805   1.084       .  S
C801        C802   1.411       .  A
C801        O806   1.368       .  S
C802        C803   1.417       .  A
C803        C804   1.397       .  A
C803        H807   1.083       .  S
C804        O808   1.371       .  S
O806        H810   0.992       .  S
O808        H809   0.992       .  S
C811        C812   1.411       .  A
C811        C816   1.413       .  A
C812        C813   1.398       .  A
C812        H817   1.083       .  S
C813        C814   1.404       .  A
C813        O818   1.370       .  S
C814        C815   1.402       .  A
C815        C816   1.395       .  A
C815        H819   1.084       .  S
C816        O820   1.374       .  S
O818        H822   0.992       .  S
O820        H821   0.991       .  S
C823        C824   1.398       .  A
C823        C828   1.408       .  A
C824        C825   1.394       .  A
C824        H829   1.084       .  S
C825        C826   1.425       .  A
C825        O830   1.371       .  S
C826        C827   1.411       .  A
C827        C828   1.398       .  A
C827        H831   1.078       .  S
C828        O832   1.370       .  S
O830        H834   0.992       .  S
O832        H833   0.992       .  S
C835        C836   1.402       .  A
C835        C840   1.410       .  A
C836        C837   1.402       .  A
C836        H841   1.083       .  S
C837        C838   1.417       .  A
C837        O842   1.372       .  S
C838        C839   1.405       .  A
C839        C840   1.394       .  A
C839        H843   1.083       .  S
C840        O844   1.371       .  S
O842        H846   0.992       .  S
O844        H845   0.992       .  S
C847        C848   1.415       .  A
C847        C852   1.422       .  A
C848        C849   1.394       .  A
C848        H853   1.079       .  S
C849        C850   1.405       .  A
C849        O854   1.375       .  S
C850        C851   1.402       .  A
C851        C852   1.399       .  A
C851        H855   1.084       .  S
C852        O856   1.370       .  S
O854        H858   0.991       .  S
O856        H857   0.993       .  S
C859        C860   1.399       .  A
C859        C864   1.407       .  A
C860        C861   1.401       .  A
C860        H865   1.081       .  S
C861        C862   1.418       .  A
C861        O866   1.372       .  S
C862        C863   1.409       .  A
C863        C864   1.395       .  A
C863        H867   1.083       .  S
C864        O868   1.372       .  S
O866        H870   0.992       .  S
O868        H869   0.992       .  S
C871        C872   1.408       .  A
C871        C876   1.405       .  A
C872        C873   1.404       .  A
C872        H877   1.084       .  S
C873        C874   1.413       .  A
C873        O878   1.371       .  S
C874        C875   1.417       .  A
C875        C876   1.397       .  A
C875        H879   1.083       .  S
C876        O880   1.371       .  S
O878        H882   0.993       .  S
O880        H881   0.992       .  S
C883        C884   1.406       .  A
C883        C888   1.405       .  A
C884        C885   1.401       .  A
C884        H889   1.083       .  S
C885        C886   1.412       .  A
C885        O890   1.371       .  S
C886        C887   1.416       .  A
C887        C888   1.397       .  A
C887        H891   1.084       .  S
C888        O892   1.371       .  S
O890        H894   0.993       .  S
O892        H893   0.992       .  S
C895        C896   1.405       .  A
C895        C900   1.401       .  A
C896        C897   1.394       .  A
C896        H901   1.084       .  S
C897        C898   1.418       .  A
C897        O902   1.369       .  S
C898        C899   1.421       .  A
C899        C900   1.397       .  A
C899        H903   1.079       .  S
C900        O904   1.372       .  S
O902        H906   0.992       .  S
O904        H905   0.992       .  S
C907        C908   1.416       .  A
C907        C912   1.424       .  A
C908        C909   1.399       .  A
C908        H913   1.079       .  S
C909        C910   1.403       .  A
C909        O914   1.371   1_545  S
C910        C911   1.401       .  A
C911        C912   1.397       .  A
C911        H915   1.084       .  S
C912        O916   1.370       .  S
O914        H918   0.991       .  S
O916        H917   0.992       .  S
C919        C920   1.404       .  A
C919        C924   1.418       .  A
C920        C921   1.392       .  A
C920        H925   1.083       .  S
C921        C922   1.409       .  A
C921        O926   1.372       .  S
C922        C923   1.400       .  A
C923        C924   1.401       .  A
C923        H927   1.083       .  S
C924        O928   1.373       .  S
O926        H930   0.992       .  S
O928        H929   0.992       .  S
C931        C932   1.418       .  A
C931        C936   1.422       .  A
C932        C933   1.397       .  A
C932        H937   1.078       .  S
C933        C934   1.402       .  A
C933        O938   1.372       .  S
C934        C935   1.398       .  A
C935        C936   1.391       .  A
C935        H939   1.082       .  S
C936        O940   1.370       .  S
O938       H3114   0.992       .  S
O940        H941   0.993       .  S
H942       O3110   0.992   1_655  S
C943        C944   1.400       .  A
C943        C948   1.408       .  A
C944        C945   1.401       .  A
C944        H949   1.081       .  S
C945        C946   1.417       .  A
C945        O950   1.372       .  S
C946        C947   1.410       .  A
C947        C948   1.397       .  A
C947        H951   1.083       .  S
C948        O952   1.372       .  S
O950        H954   0.992       .  S
O952        H953   0.992       .  S
C955        C956   1.406       .  A
C955        C960   1.422       .  A
C956        C957   1.400       .  A
C956        H961   1.079       .  S
C957        C958   1.412       .  A
C957        O962   1.369   1_545  S
C958        C959   1.397       .  A
C959        C960   1.390       .  A
C959        H963   1.084       .  S
C960        O964   1.374       .  S
O962        H966   0.992       .  S
O964        H965   0.992       .  S
C967        C968   1.401       .  A
C967        C972   1.410       .  A
C968        C969   1.403       .  A
C968        H973   1.082       .  S
C969        C970   1.419       .  A
C969        O974   1.372       .  S
C970        C971   1.410       .  A
C971        C972   1.400       .  A
C971        H975   1.083       .  S
C972        O976   1.372       .  S
O974        H978   0.992       .  S
O976        H977   0.992       .  S
C979        C980   1.404       .  A
C979        C984   1.425       .  A
C980        C981   1.398       .  A
C980        H985   1.079       .  S
C981        C982   1.415       .  A
C981        O986   1.372       .  S
C982        C983   1.393       .  A
C983        C984   1.391       .  A
C983        H987   1.084       .  S
C984        O988   1.372       .  S
O986        H990   0.992       .  S
O988        H989   0.992       .  S
C991        C992   1.397       .  A
C991        C996   1.413       .  A
C992        C993   1.394       .  A
C992        H997   1.084       .  S
C993        C994   1.425       .  A
C993        O998   1.373       .  S
C994        C995   1.405       .  A
C995        C996   1.398       .  A
C995        H999   1.078       .  S
C996       O1000   1.370       .  S
O998       H1002   0.992       .  S
O1000      H1001   0.992       .  S
C1003      C1004   1.420       .  A
C1003      C1008   1.419       .  A
C1004      C1005   1.399       .  A
C1004      H1009   1.080       .  S
C1005      C1006   1.401       .  A
C1005      O1010   1.373       .  S
C1006      C1007   1.403       .  A
C1007      C1008   1.393       .  A
C1007      H1011   1.084       .  S
C1008      O1012   1.369       .  S
O1010      H1014   0.991       .  S
O1012      H1013   0.993       .  S
C1015      C1016   1.406       .  A
C1015      C1020   1.424       .  A
C1016      C1017   1.398       .  A
C1016      H1021   1.078       .  S
C1017      C1018   1.414       .  A
C1017      O1022   1.372   1_455  S
C1018      C1019   1.397       .  A
C1019      C1020   1.396       .  A
C1019      H1023   1.084       .  S
C1020      O1024   1.372       .  S
O1022      H1026   0.992       .  S
O1024      H1025   0.992       .  S
C1027      C1028   1.405       .  A
C1027      C1032   1.405       .  A
C1028      C1029   1.396       .  A
C1028      H1033   1.083       .  S
C1029      C1030   1.410       .  A
C1029      O1034   1.372       .  S
C1030      C1031   1.412       .  A
C1031      C1032   1.402       .  A
C1031      H1035   1.083       .  S
C1032      O1036   1.370       .  S
O1034      H1038   0.990       .  S
O1036      H1037   0.992       .  S
C1039      C1040   1.403       .  A
C1039      C1044   1.426       .  A
C1040      C1041   1.397       .  A
C1040      H1045   1.078       .  S
C1041      C1042   1.415       .  A
C1041      O1046   1.371       .  S
C1042      C1043   1.397       .  A
C1043      C1044   1.395       .  A
C1043      H1047   1.084       .  S
C1044      O1048   1.374       .  S
O1046      H1050   0.991       .  S
O1048      H1049   0.992       .  S
C1051      C1052   1.407       .  A
C1051      C1056   1.418       .  A
C1052      C1053   1.399       .  A
C1052      H1057   1.083       .  S
C1053      C1054   1.409       .  A
C1053      O1058   1.376       .  S
C1054      C1055   1.400       .  A
C1055      C1056   1.402       .  A
C1055      H1059   1.083       .  S
C1056      O1060   1.372       .  S
O1058      H1062   0.991       .  S
O1060      H1061   0.992       .  S
C1063      C1064   1.405       .  A
C1063      C1068   1.426       .  A
C1064      C1065   1.400       .  A
C1064      H1069   1.079       .  S
C1065      C1066   1.415       .  A
C1065      O1070   1.372       .  S
C1066      C1067   1.397       .  A
C1067      C1068   1.394       .  A
C1067      H1071   1.084   1_455  S
C1068      O1072   1.371       .  S
O1070      H1074   0.992       .  S
O1072      H1073   0.992   1_455  S
C1075      C1076   1.399       .  A
C1075      C1080   1.408       .  A
C1076      C1077   1.400       .  A
C1076      H1081   1.081       .  S
C1077      C1078   1.417       .  A
C1077      O1082   1.373       .  S
C1078      C1079   1.406       .  A
C1079      C1080   1.393       .  A
C1079      H1083   1.082       .  S
C1080      O1084   1.371       .  S
O1082      H1086   0.992       .  S
O1084      H1085   0.992       .  S
C1087      C1088   1.555       .  S
C1087      C1093   1.529       .  S
C1087      C1091   1.496       .  S
C1087      C2149   1.529       .  S
C1088      H1095   1.079       .  S
C1088      C1089   1.386       .  D
C1089      C1090   1.572       .  S
C1089      C1168   1.558       .  S
C1090      C1094   1.562       .  S
C1090      C1092   1.574       .  S
C1090      H1096   1.107       .  S
C1091      H1097   1.091       .  S
C1091      C1092   1.339       .  D
C1092      C2164   1.478       .  S
C1093      H1098   1.083       .  S
C1093      C1094   1.371       .  D
C1094      C1258   1.539       .  S
C1099      C1100   1.554       .  S
C1099      C1105   1.535       .  S
C1099      C1103   1.495       .  S
C1099      C2125   1.529       .  S
C1100      H1107   1.078       .  S
C1100      C1101   1.386       .  D
C1101      C1102   1.576       .  S
C1101      C1294   1.564       .  S
C1102      C1106   1.567       .  S
C1102      C1104   1.580       .  S
C1102      H1108   1.107       .  S
C1103      H1109   1.091       .  S
C1103      C1104   1.337       .  D
C1104      C2137   1.483       .  S
C1105      H1110   1.084       .  S
C1105      C1106   1.372       .  D
C1106      C1165   1.548       .  S
C1111      C1112   1.550       .  S
C1111      C1117   1.534       .  S
C1111      C1115   1.498       .  S
C1111      C2101   1.531       .  S
C1112      H1119   1.077       .  S
C1112      C1113   1.380       .  D
C1113      C1114   1.568       .  S
C1113      C1259   1.555       .  S
C1114      C1118   1.566       .  S
C1114      C1116   1.577       .  S
C1114      H1120   1.105       .  S
C1115      H1121   1.091       .  S
C1115      C1116   1.342       .  D
C1116      C2116   1.481       .  S
C1117      H1122   1.083       .  S
C1117      C1118   1.375       .  D
C1118      C1291   1.549       .  S
O1123      C1138   1.252       .  A
O1123     Al1131   1.843       .  S
C1124      O1134   1.252       .  A
C1124      O1125   1.269       .  A
C1124      C2113   1.481       .  S
O1125     Al1127   1.939       .  S
O1126      C1128   1.253       .  A
O1126     Al1127   1.858       .  S
Al1127     O1135   1.872       .  S
Al1127     O1137   1.929       .  S
Al1127     O1136   1.777       .  S
C1128      O1141   1.267       .  A
C1128      C2161   1.477       .  S
O1129      C1139   1.250       .  A
O1129     Al1131   1.845       .  S
O1130      C1143   1.252       .  A
O1130     Al1140   1.859       .  S
Al1131     O1144   1.927       .  S
Al1131     O1141   1.928       .  S
Al1131     O1136   1.776       .  S
O1132      C1139   1.269       .  A
O1132     Al1140   1.939       .  S
O1133      C1142   1.267       .  A
O1133     Al1140   1.923       .  S
O1134     Al1140   1.846       .  S
O1135      C1142   1.254       .  A
O1136     Al1140   1.777       .  S
O1137      C1138   1.267       .  A
C1138      C2092   1.475       .  S
C1139      C2140   1.478       .  S
C1142      C2077   1.481       .  S
C1143      O1144   1.268       .  A
C1143      C2068   1.477       .  S
N1145      C1150   1.366       .  A
N1145      H1177   1.031       .  S
N1146      C1153   1.369       .  A
N1146      C1154   1.369       .  A
N1147      C1152   1.368       .  A
N1147      H1178   1.031       .  S
N1148      C1155   1.371       .  A
N1148      C1156   1.370       .  A
C1149      C1157   1.386       .  A
C1149      C1165   1.443       .  A
C1150      C1166   1.443       .  A
C1150      C1158   1.386       .  A
C1151      C1159   1.385       .  A
C1151      C1168   1.448       .  A
C1152      C1167   1.454       .  A
C1152      C1160   1.390       .  A
C1153      C1165   1.438       .  A
C1153      C1161   1.374       .  A
C1154      C1168   1.442       .  A
C1154      C1162   1.376       .  A
C1155      C1163   1.374   1_556  A
C1155      C1166   1.443       .  A
C1156      C1164   1.377   1_556  A
C1156      C1167   1.446       .  A
C1157      H1169   1.080       .  S
C1158      H1170   1.079       .  S
C1159      H1171   1.079       .  S
C1160      H1172   1.078       .  S
C1161      C1162   1.352       .  A
C1161      H1173   1.061       .  S
C1162      H1174   1.062       .  S
C1163      C1164   1.353       .  A
C1163      H1175   1.062       .  S
C1164      H1176   1.061       .  S
C1166      C1210   1.555       .  S
C1167      C1181   1.558       .  S
C1179      C1180   1.547       .  S
C1179      C1185   1.531       .  S
C1179      C1183   1.497       .  S
C1179      C2041   1.524       .  S
C1180      H1187   1.079       .  S
C1180      C1181   1.381   1_554  D
C1181      C1182   1.575   1_556  S
C1182      C1186   1.576   1_554  S
C1182      C1184   1.586       .  S
C1182      H1188   1.107   1_554  S
C1183      H1189   1.091       .  S
C1183      C1184   1.339       .  D
C1184      C2056   1.491       .  S
C1185      H1190   1.081       .  S
C1185      C1186   1.370   1_554  D
C1186      C1292   1.556       .  S
C1191      C1192   1.542   1_554  S
C1191      C1197   1.544       .  S
C1191      C1195   1.497       .  S
C1191      C2017   1.530       .  S
C1192      H1199   1.077       .  S
C1192      C1193   1.377       .  D
C1193      C1194   1.575   1_556  S
C1193      C1293   1.552       .  S
C1194      C1198   1.567   1_554  S
C1194      C1196   1.580       .  S
C1194      H1200   1.107   1_554  S
C1195      H1201   1.092       .  S
C1195      C1196   1.337       .  D
C1196      C2032   1.487       .  S
C1197      H1202   1.080       .  S
C1197      C1198   1.376   1_554  D
C1198      C1257   1.552       .  S
C1203      C1204   1.539       .  S
C1203      C1209   1.551       .  S
C1203      C1207   1.496       .  S
C1203      C1993   1.532       .  S
C1204      H1211   1.079   1_554  S
C1204      C1205   1.377   1_554  D
C1205      C1206   1.561   1_556  S
C1205      C1260   1.541       .  S
C1206      C1210   1.564   1_554  S
C1206      C1208   1.571       .  S
C1206      H1212   1.106   1_554  S
C1207      H1213   1.091       .  S
C1207      C1208   1.340       .  D
C1208      C2005   1.474       .  S
C1209      H1214   1.080       .  S
C1209      C1210   1.381   1_554  D
O1215      C1230   1.257       .  A
O1215     Al1223   1.870       .  S
C1216      O1226   1.254       .  A
C1216      O1217   1.269       .  A
C1216      C2053   1.485       .  S
O1217     Al1219   1.936       .  S
O1218      C1220   1.249       .  A
O1218     Al1219   1.839       .  S
Al1219     O1227   1.841       .  S
Al1219     O1229   1.934       .  S
Al1219     O1228   1.776       .  S
C1220      O1233   1.266       .  A
C1220      C2008   1.469       .  S
O1221      C1231   1.255       .  A
O1221     Al1223   1.866       .  S
O1222      C1235   1.255       .  A
O1222     Al1232   1.871       .  S
Al1223     O1236   1.922       .  S
Al1223     O1233   1.926       .  S
Al1223     O1228   1.779       .  S
O1224      C1231   1.270       .  A
O1224     Al1232   1.935       .  S
O1225      C1234   1.267       .  A
O1225     Al1232   1.931       .  S
O1226     Al1232   1.867       .  S
O1227      C1234   1.251       .  A
O1228     Al1232   1.775       .  S
O1229      C1230   1.268       .  A
C1230      C1957   1.484       .  S
C1231      C2029   1.479       .  S
C1234      C1981   1.476       .  S
C1235      O1236   1.265       .  A
C1235      C1969   1.480       .  S
N1237      C3414   1.361       .  A
N1237      C1241   1.367       .  A
N1237      H1269   1.029       .  S
N1238      C1245   1.368       .  A
N1238      C1246   1.365       .  A
N1239      C3416   1.368       .  A
N1239      C1243   1.363       .  A
N1239      H1270   1.029       .  S
N1240      C1247   1.366       .  A
N1240      C1248   1.368       .  A
C1241      C1249   1.386       .  A
C1241      C1257   1.443       .  A
C1242      N3409   1.361   1_455  A
C1242      C1258   1.441       .  A
C1242      C1250   1.386       .  A
C1243      C1251   1.385       .  A
C1243      C1260   1.442       .  A
C1244      N3411   1.368   1_455  A
C1244      C1259   1.448       .  A
C1244      C1252   1.388       .  A
C1245      C1257   1.435       .  A
C1245      C1253   1.372   1_556  A
C1246      C1260   1.440       .  A
C1246      C1254   1.378   1_556  A
C1247      C1255   1.376       .  A
C1247      C1258   1.438       .  A
C1248      C1256   1.376       .  A
C1248      C1259   1.440       .  A
C1249      C3422   1.362       .  A
C1249      H1261   1.078       .  S
C1250      C3421   1.362   1_455  A
C1250      H1262   1.080       .  S
C1251      C3424   1.365       .  A
C1251      H1263   1.080       .  S
C1252      C3423   1.366   1_455  A
C1252      H1264   1.077       .  S
C1253      C1254   1.351       .  A
C1253      H1265   1.062       .  S
C1254      H1266   1.059       .  S
C1255      C1256   1.355       .  A
C1255      H1267   1.061       .  S
C1256      H1268   1.065       .  S
N1271      C1276   1.368       .  A
N1271      C1275   1.364       .  A
N1271      H1303   1.031       .  S
N1272      C1279   1.370       .  A
N1272      C1280   1.370       .  A
N1273      C1278   1.368       .  A
N1273      C1277   1.371       .  A
N1273      H1304   1.031       .  S
N1274      C1281   1.369       .  A
N1274      C1282   1.367       .  A
C1275      C1283   1.385       .  A
C1275      C1291   1.442       .  A
C1276      C1292   1.448       .  A
C1276      C1284   1.388       .  A
C1277      C1285   1.389       .  A
C1277      C1294   1.454       .  A
C1278      C1293   1.448       .  A
C1278      C1286   1.384       .  A
C1279      C1291   1.441       .  A
C1279      C1287   1.375       .  A
C1280      C1294   1.445       .  A
C1280      C1288   1.376       .  A
C1281      C1289   1.372   1_556  A
C1281      C1292   1.434       .  A
C1282      C1290   1.376   1_556  A
C1282      C1293   1.437       .  A
C1283      C1284   1.365       .  A
C1283      H1295   1.081       .  S
C1284      H1296   1.079       .  S
C1285      C1286   1.370       .  A
C1285      H1297   1.077       .  S
C1286      H1298   1.080       .  S
C1287      C1288   1.351       .  A
C1287      H1299   1.064       .  S
C1288      H1300   1.062       .  S
C1289      C1290   1.348       .  A
C1289      H1301   1.062       .  S
C1290      H1302   1.059       .  S
C1305      C3478   1.542       .  S
C1305      C3483   1.540       .  S
C1305      C3481   1.497       .  S
C1305      C1933   1.530       .  S
C1306      C3477   1.542   1_455  S
C1306      H3485   1.074   1_455  S
C1306      C1307   1.382       .  D
C1307      C1308   1.572       .  S
C1307      C1441   1.551       .  S
C1308      C1312   1.567       .  S
C1308      C1310   1.580       .  S
C1308      H1314   1.107       .  S
C1309      C3477   1.498   1_455  S
C1309      H1315   1.091       .  S
C1309      C1310   1.340       .  D
C1310      C1948   1.484       .  S
C1311      C3477   1.538   1_455  S
C1311      H3488   1.083   1_455  S
C1311      C1312   1.369       .  D
C1312      C1510   1.550       .  S
H1313      C3478   1.074       .  S
H1316      C3483   1.082       .  S
C1317      C1318   1.547       .  S
C1317      C1323   1.535       .  S
C1317      C1321   1.500       .  S
C1317      C1912   1.528       .  S
C1318      H1325   1.079       .  S
C1318      C1319   1.379       .  D
C1319      C1320   1.567       .  S
C1319      C1478   1.548       .  S
C1320      C1324   1.568       .  S
C1320      C1322   1.577       .  S
C1320      H1326   1.106       .  S
C1321      H1327   1.091       .  S
C1321      C1322   1.340       .  D
C1322      C1924   1.484       .  S
C1323      H1328   1.079       .  S
C1323      C1324   1.373       .  D
C1324      C1444   1.550       .  S
C1329      C1888   1.529       .  S
C1330      C1331   1.378   1_545  D
C1331      C1332   1.573       .  S
C1331      C1511   1.557       .  S
C1332      C1336   1.564       .  S
C1332      C1334   1.577       .  S
C1332      H1338   1.107       .  S
C1333      H1339   1.091       .  S
C1333      C1334   1.340       .  D
C1334      C1897   1.476       .  S
C1335      C1336   1.377   1_545  D
C1336      C1475   1.551       .  S
O1341      C1356   1.254       .  A
O1341     Al1349   1.865       .  S
C1342      O1352   1.252       .  A
C1342      O1343   1.268       .  A
C1342      C1900   1.474       .  S
O1343     Al1345   1.931       .  S
O1344      C1346   1.252       .  A
O1344     Al1345   1.857       .  S
Al1345     O1353   1.863       .  S
Al1345     O1355   1.923       .  S
Al1345     O1354   1.777       .  S
C1346      O1359   1.269       .  A
C1346      C1945   1.479       .  S
O1347      C1357   1.252       .  A
O1347     Al1349   1.858       .  S
O1348      C1361   1.253       .  A
O1348     Al1358   1.864       .  S
Al1349     O1362   1.934       .  S
Al1349     O1359   1.937       .  S
Al1349     O1354   1.775       .  S
O1350      C1357   1.268       .  A
O1350     Al1358   1.934       .  S
O1351      C1360   1.266       .  A
O1351     Al1358   1.921       .  S
O1352     Al1358   1.846       .  S
O1353      C1360   1.254       .  A
O1354     Al1358   1.780       .  S
O1355      C1356   1.267       .  A
C1356      C1873   1.479       .  S
C1357      C1921   1.482       .  S
C1360      C1849   1.476       .  S
C1361      O1362   1.269       .  A
C1361      C1864   1.485       .  S
C1363      C1364   1.548       .  S
C1363      C1369   1.536       .  S
C1363      C1367   1.497       .  S
C1363      C1984   1.532       .  S
C1364      H1371   1.077       .  S
C1364      C1365   1.380       .  D
C1365      C1366   1.569       .  S
C1366      C1370   1.575       .  S
C1366      C1368   1.577       .  S
C1366      H1372   1.108       .  S
C1367      H1373   1.091       .  S
C1367      C1368   1.341       .  D
C1368      C1837   1.480       .  S
C1369      H1374   1.080       .  S
C1369      C1370   1.372       .  D
C1370      C1443   1.553       .  S
C1375      C1376   1.562       .  S
C1375      C1381   1.518       .  S
C1375      C1379   1.503       .  S
C1375      C1972   1.535       .  S
C1376      H1383   1.076       .  S
C1376      C1377   1.384       .  D
C1377      C1378   1.567       .  S
C1377      C1477   1.565       .  S
C1378      C1382   1.577       .  S
C1378      C1380   1.579       .  S
C1378      H1384   1.108       .  S
C1379      H1385   1.090       .  S
C1379      C1380   1.349       .  D
C1380      C1825   1.500       .  S
C1381      H1386   1.085       .  S
C1381      C1382   1.368       .  D
C1382      C3681   1.539       .  S
C1387      C1388   1.550       .  S
C1387      C1393   1.539       .  S
C1387      C1391   1.498       .  S
C1387      C1960   1.538       .  S
C1388      H1395   1.072       .  S
C1388      C1389   1.382       .  D
C1389      C1390   1.558       .  S
C1389      C3614   1.551       .  S
C1390      C1394   1.563       .  S
C1390      C1392   1.570       .  S
C1390      H1396   1.105       .  S
C1391      H1397   1.091       .  S
C1391      C1392   1.342       .  D
C1392      C1813   1.471       .  S
C1393      H1398   1.084       .  S
C1393      C1394   1.376       .  D
O1399      C1414   1.254       .  A
O1399     Al3579   1.861       .  S
C1400      O1410   1.257       .  A
C1400      O1401   1.267       .  A
C1400      C1828   1.477       .  S
O1401     Al1403   1.926       .  S
O1402      C1404   1.250       .  A
Al1403     O1411   1.855       .  S
C1404      O1417   1.264       .  A
C1404      C1816   1.474       .  S
O1405      C1415   1.252       .  A
O1405     Al1407   1.853       .  S
O1406      C1419   1.260       .  A
Al1407     O3571   1.861   1_455  S
Al1407     O1420   1.909       .  S
Al1407     O3589   1.919   1_455  S
Al1407     O3584   1.771   1_455  S
O1408      C1415   1.266       .  A
O1409      C1418   1.266       .  A
O1409     Al3588   1.928       .  S
O1410     Al3588   1.869       .  S
O1411      C1418   1.254       .  A
O1412     Al3579   1.771       .  S
O1412     Al2502   1.779       .  S
O1413      C1414   1.266       .  A
C1414      C1996   1.478       .  S
C1415      C1840   1.479       .  S
Al1416     O3581   1.928   1_455  S
Al1416     O3582   1.868   1_455  S
Al1416     O2498   1.780   1_465  S
O1417     Al3579   1.919       .  S
C1418      C2020   1.475       .  S
C1419      O1420   1.268       .  A
C1419      C2044   1.476       .  S
N1421      C1426   1.365       .  A
N1421      C1425   1.366       .  A
N1421      H1453   1.030       .  S
N1422      C1429   1.368       .  A
N1422      C1430   1.367       .  A
N1423      C1428   1.367       .  A
N1423      C1427   1.366       .  A
N1423      H1454   1.030       .  S
N1424      C1431   1.366       .  A
N1424      C1432   1.369       .  A
C1425      C1433   1.386   1_455  A
C1425      C1441   1.446       .  A
C1426      C1442   1.443   1_455  A
C1426      C3606   1.386   1_455  A
C1427      C1435   1.384       .  A
C1427      C1444   1.443       .  A
C1428      C1443   1.449       .  A
C1428      C1436   1.387       .  A
C1429      C1441   1.439       .  A
C1429      C1437   1.377       .  A
C1430      C1444   1.435       .  A
C1430      C1438   1.373       .  A
C1431      C1439   1.378       .  A
C1431      C1442   1.444   1_455  A
C1432      C1440   1.375       .  A
C1432      C1443   1.435       .  A
C1433      C3606   1.364       .  A
C1433      H3617   1.079       .  S
C1434      C3598   1.387       .  A
C1434      C3605   1.364       .  A
C1434      H1446   1.079       .  S
C1435      C1436   1.362       .  A
C1435      H1447   1.080       .  S
C1436      H1448   1.080       .  S
C1437      C1438   1.350       .  A
C1437      H1449   1.062       .  S
C1438      H1450   1.062       .  S
C1439      C1440   1.356       .  A
C1439      H1451   1.059       .  S
C1440      H1452   1.069       .  S
C1442      C3561   1.550       .  S
H1445      C3605   1.080       .  S
N1455      C1460   1.363   1_565  A
N1455      C1459   1.366       .  A
N1455      H1487   1.029       .  S
N1456      C1463   1.370       .  A
N1456      C1464   1.367       .  A
N1457      C1462   1.369       .  A
N1457      C1461   1.365       .  A
N1457      H1488   1.031       .  S
N1458      C1465   1.372       .  A
N1458      C1466   1.371       .  A
C1459      C1467   1.385   1_565  A
C1459      C1475   1.440       .  A
C1460      C1476   1.442       .  A
C1461      C1469   1.385       .  A
C1461      C1478   1.444       .  A
C1462      C1477   1.450       .  A
C1462      C1470   1.390       .  A
C1463      C1475   1.439       .  A
C1463      C1471   1.374       .  A
C1464      C1478   1.440       .  A
C1464      C1472   1.377       .  A
C1465      C1473   1.374       .  A
C1465      C1476   1.446   1_565  A
C1466      C1474   1.370       .  A
C1466      C1477   1.447       .  A
C1468      H1480   1.079       .  S
C1469      C1470   1.368       .  A
C1469      H1481   1.080       .  S
C1470      H1482   1.076       .  S
C1471      C1472   1.351       .  A
C1471      H1483   1.062       .  S
C1472      H1484   1.062       .  S
C1473      C1474   1.347       .  A
C1473      H1485   1.060   1_565  S
C1474      H1486   1.051       .  S
N1489      C1494   1.364       .  A
N1489      C1493   1.363       .  A
N1489      H1521   1.031       .  S
N1490      C1497   1.366       .  A
N1490      C1498   1.366       .  A
N1491      C1496   1.368       .  A
N1491      C1495   1.368   1_565  A
N1491      H1522   1.034       .  S
N1492      C1499   1.369       .  A
N1492      C1500   1.368       .  A
C1493      C3673   1.385   1_455  A
C1493      C1509   1.438   1_455  A
C1494      C1510   1.445       .  A
C1494      C1502   1.389   1_455  A
C1495      C1512   1.442       .  A
C1496      C1511   1.453       .  A
C1496      C1504   1.391   1_565  A
C1497      C1509   1.426   1_455  A
C1497      C1505   1.373       .  A
C1498      C1512   1.431   1_565  A
C1498      C1506   1.376       .  A
C1499      C1507   1.373       .  A
C1499      C1510   1.438       .  A
C1500      C1508   1.376       .  A
C1500      C1511   1.442       .  A
C1501      C3665   1.385       .  A
C1501      C3674   1.366       .  A
C1501      H1513   1.080       .  S
C1502      C3673   1.366       .  A
C1502      H3686   1.079       .  S
C1503      H1515   1.080       .  S
C1505      C1506   1.365       .  A
C1505      H1517   1.076       .  S
C1506      H1518   1.067       .  S
C1507      C1508   1.352       .  A
C1507      H1519   1.063       .  S
C1508      H1520   1.059       .  S
C1509      C3554   1.538       .  S
H1514      C3674   1.079       .  S
C1523      C1524   1.553       .  S
C1523      C1529   1.533       .  S
C1523      C1527   1.495       .  S
C1523      C2065   1.528       .  S
C1524      H1531   1.078       .  S
C1524      C1525   1.385       .  D
C1525      C1526   1.575       .  S
C1525      C1661   1.564       .  S
C1526      C1530   1.568       .  S
C1526      C1528   1.581       .  S
C1526      H1532   1.106       .  S
C1527      H1533   1.091       .  S
C1527      C1528   1.339       .  D
C1528      C1801   1.481       .  S
C1529      H1534   1.082       .  S
C1529      C1530   1.371       .  D
C1535      C1536   1.548       .  S
C1535      C1541   1.532       .  S
C1535      C1539   1.496       .  S
C1535      C2080   1.528       .  S
C1536      H1543   1.079       .  S
C1536      C1537   1.383       .  D
C1537      C1538   1.579       .  S
C1537      C3899   1.558   1_455  S
C1538      C1542   1.564       .  S
C1538      C1540   1.580       .  S
C1538      H1544   1.108       .  S
C1539      H1545   1.091       .  S
C1539      C1540   1.339       .  D
C1540      C1789   1.486       .  S
C1541      H1546   1.082       .  S
C1541      C1542   1.371       .  D
C1542      C1695   1.545       .  S
C1547      C1548   1.546       .  S
C1547      C1553   1.536       .  S
C1547      C1551   1.496       .  S
C1547      C2089   1.530       .  S
C1548      H1555   1.074       .  S
C1548      C1549   1.380       .  D
C1549      C1550   1.571       .  S
C1550      C1554   1.570       .  S
C1550      C1552   1.576       .  S
C1550      H1556   1.107       .  S
C1551      H1557   1.092       .  S
C1551      C1552   1.340       .  D
C1552      C1777   1.481       .  S
C1553      H1558   1.083       .  S
C1553      C1554   1.373       .  D
C1554      C3832   1.550   1_455  S
O1559     Al1567   1.866       .  S
C1560      O1561   1.269       .  A
C1560      C1804   1.479       .  S
O1561     Al1563   1.936       .  S
O1562      C3736   1.251       .  A
O1562     Al1563   1.846       .  S
Al1563     O1571   1.864       .  S
Al1563     O1573   1.924       .  S
C1564      O3734   1.251   1_455  A
C1564      C1780   1.481       .  S
O1565      C1575   1.252       .  A
O1565     Al1567   1.860       .  S
O1566      C3751   1.254       .  A
O1566     Al1576   1.866       .  S
Al1567     O1580   1.925       .  S
Al1567     O1577   1.934       .  S
Al1567     O3744   1.781   1_455  S
O1568      C3747   1.269       .  A
O1568     Al1576   1.934       .  S
O1569     Al1576   1.924       .  S
O1570     Al1576   1.849       .  S
O1571      C1578   1.253       .  A
O1572     Al3739   1.781       .  S
O1572     Al1576   1.777       .  S
O1573      C3746   1.267       .  A
C1574      O3745   1.267       .  A
C1574      C2152   1.481       .  S
C1575      O3740   1.269       .  A
C1575      C1792   1.480       .  S
C1578      C2128   1.480       .  S
C1579      O3738   1.254   1_455  A
C1579      O1580   1.268       .  A
C1579      C2104   1.480       .  S
C1581      C1582   1.559       .  S
C1581      C1587   1.516       .  S
C1581      C1585   1.499       .  S
C1582      C1583   1.381       .  D
C1583      C1584   1.572       .  S
C1583      C1693   1.559       .  S
C1584      C1588   1.585       .  S
C1584      C1586   1.580       .  S
C1584      H1590   1.109       .  S
C1585      H1591   1.089       .  S
C1585      C1586   1.344       .  D
C1586      C1765   1.501       .  S
C1587      C1588   1.369       .  D
C1588      C1729   1.540       .  S
C1593      C1594   1.551       .  S
C1593      C1599   1.534       .  S
C1593      C1597   1.493       .  S
C1593      C4048   1.531       .  S
C1594      H3773   1.077       .  S
C1594      C1595   1.381       .  D
C1595      C1596   1.571       .  S
C1595      C1730   1.553       .  S
C1596      C1600   1.571       .  S
C1596      C1598   1.578       .  S
C1596      H1602   1.108       .  S
C1597      H1603   1.092       .  S
C1597      C1598   1.339       .  D
C1598      C1756   1.479       .  S
C1599      H3776   1.081       .  S
C1599      C1600   1.374       .  D
C1600      C1659   1.552       .  S
H1601      C3766   1.077   1_455  S
H1604      C3771   1.081   1_455  S
C1605      C1606   1.555       .  S
C1605      C1611   1.531       .  S
C1605      C1609   1.494       .  S
C1605      C1861   1.532       .  S
C1606      H1613   1.080       .  S
C1606      C1607   1.385       .  D
C1607      C1608   1.569       .  S
C1607      C1662   1.553       .  S
C1608      C1612   1.565       .  S
C1608      C1610   1.573       .  S
C1608      H1614   1.108       .  S
C1609      H1615   1.092       .  S
C1609      C1610   1.338       .  D
C1610      C1741   1.477       .  S
C1611      H1616   1.082       .  S
C1611      C1612   1.374       .  D
C1612      C1694   1.543       .  S
O1617      C1632   1.262       .  A
O1617     Al1625   1.879       .  S
C1618      O1628   1.248       .  A
C1618      O1619   1.267       .  A
C1618      C1744   1.474       .  S
O1619     Al1621   1.929       .  S
O1620      C1622   1.253       .  A
O1620     Al1621   1.869       .  S
Al1621     O1629   1.875       .  S
Al1621     O1631   1.922       .  S
Al1621     O1630   1.770       .  S
C1622      O1635   1.261       .  A
C1622      C1753   1.474       .  S
O1623      C1633   1.261       .  A
O1623     Al1625   1.890       .  S
O1624      C1637   1.251       .  A
O1624     Al1634   1.855       .  S
Al1625     O1638   1.929       .  S
Al1625     O1635   1.918       .  S
Al1625     O1630   1.778       .  S
O1626      C1633   1.273       .  A
O1626     Al1634   1.943       .  S
O1627      C1636   1.264       .  A
O1627     Al1634   1.906       .  S
O1628     Al1634   1.822       .  S
O1629      C1636   1.254       .  A
O1630     Al1634   1.777       .  S
O1631      C1632   1.271       .  A
C1632      C1936   1.477       .  S
C1633      C1768   1.487       .  S
C1636      C1909   1.479       .  S
C1637      O1638   1.265       .  A
C1637      C1885   1.478       .  S
N1639      C1644   1.365       .  A
N1639      C1643   1.367       .  A
N1639      H1671   1.031       .  S
N1640      C1647   1.369       .  A
N1640      C1648   1.367       .  A
N1641      C1646   1.371       .  A
N1641      C1645   1.369       .  A
N1641      H1672   1.033       .  S
N1642      C1649   1.370       .  A
N1642      C1650   1.368       .  A
C1643      C1651   1.386       .  A
C1643      C1659   1.445       .  A
C1644      C1660   1.444       .  A
C1644      C1652   1.386       .  A
C1645      C1653   1.382       .  A
C1645      C1662   1.444       .  A
C1646      C1661   1.455       .  A
C1646      C1654   1.391       .  A
C1647      C1659   1.436       .  A
C1647      C1655   1.375       .  A
C1648      C1662   1.439       .  A
C1648      C1656   1.377       .  A
C1649      C1657   1.373       .  A
C1649      C1660   1.437       .  A
C1650      C1658   1.378       .  A
C1650      C1661   1.448       .  A
C1651      C1652   1.362       .  A
C1651      H1663   1.080       .  S
C1652      H3836   1.080       .  S
C1653      C1654   1.369       .  A
C1653      H1665   1.080       .  S
C1654      H1666   1.076       .  S
C1655      C1656   1.354       .  A
C1655      H1667   1.064       .  S
C1656      H1668   1.062       .  S
C1657      C1658   1.351       .  A
C1657      H1669   1.066       .  S
C1658      H1670   1.056       .  S
C1660      C3726   1.550       .  S
H1664      C3824   1.080       .  S
N1673      C1678   1.372       .  A
N1673      C1677   1.370       .  A
N1673      H1705   1.041       .  S
N1674      C1681   1.366       .  A
N1674      C1682   1.365       .  A
N1675      C1680   1.370       .  A
N1675      C1679   1.368       .  A
N1675      H1706   1.041       .  S
N1676      C1683   1.361       .  A
N1676      C1684   1.362       .  A
C1677      C1685   1.369       .  A
C1677      C1693   1.435       .  A
C1678      C1694   1.433       .  A
C1678      C1686   1.373       .  A
C1679      C1687   1.376       .  A
C1679      C1696   1.435       .  A
C1680      C1695   1.430       .  A
C1680      C1688   1.372       .  A
C1681      C1693   1.441       .  A
C1681      C1689   1.386       .  A
C1682      C1696   1.441       .  A
C1682      C1690   1.385       .  A
C1683      C1691   1.385       .  A
C1683      C1694   1.432       .  A
C1684      C1692   1.384       .  A
C1684      C1695   1.430       .  A
C1685      C1686   1.353       .  A
C1685      H1697   1.056       .  S
C1686      H1698   1.063       .  S
C1687      C1688   1.355       .  A
C1687      H1699   1.059       .  S
C1688      H1700   1.063       .  S
C1689      C1690   1.367       .  A
C1689      H1701   1.077       .  S
C1691      C1692   1.359       .  A
C1691      H1703   1.080       .  S
C1692      H1704   1.080       .  S
N1707      C1712   1.373       .  A
N1707      C1711   1.371       .  A
N1707      H1739   1.040       .  S
N1708      C1715   1.369       .  A
N1708      C1716   1.370       .  A
N1709      C1714   1.367       .  A
N1709      C1713   1.366       .  A
N1709      H1740   1.042       .  S
N1710      C1717   1.365       .  A
N1710      C1718   1.365       .  A
C1711      C1719   1.377       .  A
C1711      C1727   1.441       .  A
C1712      C1728   1.438       .  A
C1712      C1720   1.375       .  A
C1713      C1721   1.380       .  A
C1713      C1730   1.434       .  A
C1714      C1729   1.423       .  A
C1714      C1722   1.375       .  A
C1715      C1727   1.447       .  A
C1715      C1723   1.386       .  A
C1716      C1730   1.445       .  A
C1716      C1724   1.384       .  A
C1717      C1725   1.386       .  A
C1717      C1728   1.441       .  A
C1718      C1726   1.383       .  A
C1718      C1729   1.435       .  A
C1719      C1720   1.352       .  A
C1719      H1731   1.061       .  S
C1720      H1732   1.063       .  S
C1721      C1722   1.362       .  A
C1721      H1733   1.062       .  S
C1722      H1734   1.074       .  S
C1723      C1724   1.365       .  A
C1723      H3907   1.079       .  S
C1724      H1736   1.079       .  S
C1725      C1726   1.361       .  A
C1726      H1738   1.081       .  S
C1727      C3709   1.558       .  S
H1735      C3895   1.079       .  S
C1741      C1742   1.413       .  A
C1741      C1746   1.414       .  A
C1742      C1743   1.400       .  A
C1742      H1747   1.082       .  S
C1743      C1744   1.403       .  A
C1743      O1748   1.370       .  S
C1744      C1745   1.404       .  A
C1745      C1746   1.391       .  A
C1745      H1749   1.084       .  S
C1746      O1750   1.373       .  S
O1748      H1752   0.991       .  S
O1750      H1751   0.993       .  S
C1753      C1754   1.402       .  A
C1753      C1758   1.406       .  A
C1754      C1755   1.399       .  A
C1754      H1759   1.084       .  S
C1755      C1756   1.420       .  A
C1755      O1760   1.372       .  S
C1756      C1757   1.407       .  A
C1757      C1758   1.394       .  A
C1757      H1761   1.082       .  S
C1758      O1762   1.370       .  S
O1760      H1764   0.992       .  S
O1762      H1763   0.992       .  S
C1765      C1766   1.393       .  A
C1765      C1770   1.426       .  A
C1766      C1767   1.402       .  A
C1766      H1771   1.081       .  S
C1767      C1768   1.415       .  A
C1767      O1772   1.361       .  S
C1768      C1769   1.393       .  A
C1769      C1770   1.401       .  A
C1769      H1773   1.083       .  S
C1770      O1774   1.376       .  S
O1772      H1776   0.991       .  S
O1774      H1775   0.992       .  S
C1777      C1778   1.414       .  A
C1777      C1782   1.413       .  A
C1778      C1779   1.403       .  A
C1778      H1783   1.083   1_565  S
C1779      C1780   1.404       .  A
C1779      O1784   1.370   1_565  S
C1780      C1781   1.403       .  A
C1781      C1782   1.393       .  A
C1781      H3957   1.082   1_455  S
C1782      O1786   1.372   1_455  S
O1784      H1788   0.992       .  S
H1785      C3953   1.082       .  S
O1786      H3959   0.992       .  S
H1787      O3958   0.992       .  S
C1789      C1790   1.410       .  A
C1789      C1794   1.416       .  A
C1790      C1791   1.404       .  A
C1790      H1795   1.084       .  S
C1791      C1792   1.408       .  A
C1791      O1796   1.379       .  S
C1792      C1793   1.400       .  A
C1793      C1794   1.401       .  A
C1793      H1797   1.083   1_455  S
C1794      O1798   1.370   1_455  S
O1796      H1800   0.992       .  S
O1798      H1799   0.992       .  S
C1801      C1802   1.413       .  A
C1801      C1806   1.411       .  A
C1802      C1803   1.402       .  A
C1802      H1807   1.083       .  S
C1803      C1804   1.406       .  A
C1803      O1808   1.371       .  S
C1804      C1805   1.403       .  A
C1805      C1806   1.395       .  A
O1808      H1812   0.992       .  S
O1810      H1811   0.990       .  S
C1813      C1814   1.410       .  A
C1813      C1818   1.410       .  A
C1814      C1815   1.398       .  A
C1814      H1819   1.083       .  S
C1815      C1816   1.406       .  A
C1815      O1820   1.371       .  S
C1816      C1817   1.404       .  A
C1817      C1818   1.388       .  A
C1817      H1821   1.084       .  S
C1818      O1822   1.373       .  S
O1820      H3996   0.992       .  S
O1822      H1823   0.992       .  S
H1824      O3992   0.992       .  S
C1825      C1826   1.419       .  A
C1825      C1830   1.396       .  A
C1826      C1827   1.400       .  A
C1826      H1831   1.084       .  S
C1827      C1828   1.400       .  A
C1827      O1832   1.371       .  S
C1828      C1829   1.408       .  A
C1829      C1830   1.401       .  A
C1829      H1833   1.078       .  S
C1830      O1834   1.368       .  S
O1832      H1836   0.992       .  S
O1834      H1835   0.989       .  S
C1837      C1838   1.412       .  A
C1837      C1842   1.411       .  A
C1838      C1839   1.401       .  A
C1838      H1843   1.082       .  S
C1839      C1840   1.407       .  A
C1839      O1844   1.372       .  S
C1840      C1841   1.404       .  A
C1841      C1842   1.394       .  A
C1841      H1845   1.083       .  S
C1842      O1846   1.372       .  S
O1844      H1848   0.992       .  S
O1846      H1847   0.992       .  S
C1849      C1850   1.397       .  A
C1849      C1854   1.413       .  A
C1850      C1851   1.395       .  A
C1850      H1855   1.084       .  S
C1851      C1852   1.422       .  A
C1851      O1856   1.374       .  S
C1852      C1853   1.404       .  A
C1853      C1854   1.398       .  A
C1853      H1857   1.078       .  S
C1854      O1858   1.373       .  S
O1856      H1860   0.992   1_565  S
O1858      H1859   0.992       .  S
C1861      C1862   1.405       .  A
C1861      C1866   1.427       .  A
C1862      C1863   1.399       .  A
C1862      H1867   1.078       .  S
C1863      C1864   1.415       .  A
C1863      O1868   1.372       .  S
C1864      C1865   1.398       .  A
C1865      C1866   1.398       .  A
C1865      H1869   1.084       .  S
C1866      O1870   1.373       .  S
O1868      H1872   0.992       .  S
O1870      H1871   0.992       .  S
C1873      C1874   1.397       .  A
C1873      C1878   1.412       .  A
C1874      C1875   1.395       .  A
C1874      H1879   1.084       .  S
C1875      C1876   1.426       .  A
C1875      O1880   1.372       .  S
C1876      C3765   1.531       .  S
C1876      C1877   1.407       .  A
C1877      C1878   1.397       .  A
C1877      H1881   1.077       .  S
C1878      O1882   1.372       .  S
O1880      H1884   0.992       .  S
O1882      H1883   0.992       .  S
C1885      C1886   1.409       .  A
C1885      C1890   1.404       .  A
C1886      C1887   1.396       .  A
C1886      H1891   1.084       .  S
C1887      C1888   1.410       .  A
C1887      O1892   1.369       .  S
C1888      C1889   1.416       .  A
C1889      C1890   1.396       .  A
C1889      H1893   1.084       .  S
C1890      O1894   1.371       .  S
O1892      H1896   0.992       .  S
O1894      H1895   0.992       .  S
C1897      C1898   1.411       .  A
C1897      C1902   1.414       .  A
C1898      C1899   1.398       .  A
C1898      H1903   1.083       .  S
C1899      C1900   1.404       .  A
C1899      O1904   1.370       .  S
C1900      C1901   1.402       .  A
C1901      C1902   1.395       .  A
C1901      H1905   1.084       .  S
C1902      O1906   1.374       .  S
O1904      H1908   0.992       .  S
O1906      H1907   0.992       .  S
C1909      C1910   1.397       .  A
C1909      C1914   1.410       .  A
C1910      C1911   1.392       .  A
C1910      H1915   1.084       .  S
C1911      C1912   1.425       .  A
C1911      O1916   1.371       .  S
C1912      C1913   1.410       .  A
C1913      C1914   1.398       .  A
C1913      H1917   1.078       .  S
C1914      O1918   1.371       .  S
O1916      H1920   0.992       .  S
O1918      H1919   0.992       .  S
C1921      C1922   1.402       .  A
C1921      C1926   1.411       .  A
C1922      C1923   1.403       .  A
C1922      H1927   1.083       .  S
C1923      C1924   1.418       .  A
C1923      O1928   1.372       .  S
C1924      C1925   1.405       .  A
C1925      C1926   1.395       .  A
C1925      H1929   1.083       .  S
C1926      O1930   1.371       .  S
O1928      H1932   0.992       .  S
O1930      H1931   0.991       .  S
C1933      C1934   1.416       .  A
C1933      C1938   1.417       .  A
C1934      C1935   1.388       .  A
C1934      H1939   1.082       .  S
C1935      C1936   1.403       .  A
C1935      O1940   1.372       .  S
C1936      C1937   1.405       .  A
C1937      C1938   1.401       .  A
C1937      H1941   1.084       .  S
C1938      O1942   1.369       .  S
O1940      H1944   0.990       .  S
O1942      H1943   0.993       .  S
C1945      C1946   1.399       .  A
C1945      C1950   1.408       .  A
C1946      C1947   1.402       .  A
C1946      H1951   1.081       .  S
C1947      C1948   1.418       .  A
C1947      O1952   1.372       .  S
C1948      C1949   1.408       .  A
C1949      C1950   1.396       .  A
C1949      H1953   1.083       .  S
C1950      O1954   1.371       .  S
O1952      H1956   0.992       .  S
O1954      H1955   0.992       .  S
C1957      C1958   1.406       .  A
C1957      C1962   1.405       .  A
C1958      C1959   1.400       .  A
C1958      H1963   1.084       .  S
C1959      C1960   1.415       .  A
C1959      O1964   1.369       .  S
C1960      C1961   1.419       .  A
C1961      C1962   1.399       .  A
C1961      H1965   1.083       .  S
C1962      O1966   1.371       .  S
O1964      H1968   0.993       .  S
O1966      H1967   0.992       .  S
C1969      C1970   1.407       .  A
C1969      C1974   1.405       .  A
C1970      C1971   1.402       .  A
C1970      H1975   1.082       .  S
C1971      C1972   1.410       .  A
C1971      O1976   1.372       .  S
C1972      C1973   1.416       .  A
C1973      C1974   1.397       .  A
C1973      H1977   1.084       .  S
C1974      O1978   1.371       .  S
O1976      H1980   0.993       .  S
O1978      H1979   0.992       .  S
C1981      C1982   1.403       .  A
C1981      C1986   1.400       .  A
C1982      C1983   1.392       .  A
C1982      H1987   1.083       .  S
C1983      C1984   1.418       .  A
C1983      O1988   1.369       .  S
C1984      C1985   1.422       .  A
C1985      C1986   1.397       .  A
C1985      H1989   1.078       .  S
C1986      O1990   1.372       .  S
O1988      H1992   0.993       .  S
O1990      H1991   0.991       .  S
C1993      C1994   1.414       .  A
C1993      C1998   1.425       .  A
C1994      C1995   1.399       .  A
C1994      H1999   1.078       .  S
C1995      C1996   1.403       .  A
C1995      O2000   1.370       .  S
C1996      C1997   1.399       .  A
C1997      C1998   1.395       .  A
C1997      H2001   1.084       .  S
C1998      O2002   1.371       .  S
O2000      H2004   0.990       .  S
O2002      H2003   0.992       .  S
C2005      C2006   1.403       .  A
C2005      C2010   1.417       .  A
C2006      C2007   1.390       .  A
C2006      H2011   1.083       .  S
C2007      C2008   1.409       .  A
C2007      O2012   1.372       .  S
C2008      C2009   1.399       .  A
C2009      C2010   1.399       .  A
C2009      H2013   1.083       .  S
C2010      O2014   1.373       .  S
O2012      H2016   0.992       .  S
O2014      H2015   0.992       .  S
C2017      C2018   1.419       .  A
C2017      C2022   1.421       .  A
C2018      C2019   1.397       .  A
C2018      H2023   1.079       .  S
C2019      C2020   1.402       .  A
C2019      O2024   1.372       .  S
C2020      C2021   1.399       .  A
C2021      C2022   1.392       .  A
C2021      H2025   1.082       .  S
C2022      O2026   1.370       .  S
O2024      H4200   0.992       .  S
O2026      H2027   0.993       .  S
H2028      O4196   0.992   1_655  S
C2029      C2030   1.400       .  A
C2029      C2034   1.407       .  A
C2030      C2031   1.401       .  A
C2030      H2035   1.081       .  S
C2031      C2032   1.418       .  A
C2031      O2036   1.372       .  S
C2032      C2033   1.410       .  A
C2033      C2034   1.398       .  A
C2033      H2037   1.083       .  S
C2034      O2038   1.372       .  S
O2036      H2040   0.992       .  S
O2038      H2039   0.992       .  S
C2041      C2042   1.405       .  A
C2041      C2046   1.421       .  A
C2042      C2043   1.399       .  A
C2042      H2047   1.079       .  S
C2043      C2044   1.411       .  A
C2043      O2048   1.368       .  S
C2044      C2045   1.398       .  A
C2045      C2046   1.389       .  A
C2045      H2049   1.084       .  S
C2046      O2050   1.374       .  S
O2048      H2052   0.992       .  S
O2050      H2051   0.992       .  S
C2053      C2054   1.401       .  A
C2053      C2058   1.409       .  A
C2054      C2055   1.403       .  A
C2054      H2059   1.082       .  S
C2055      C2056   1.419       .  A
C2055      O2060   1.372       .  S
C2056      C2057   1.410       .  A
C2057      C2058   1.400       .  A
C2057      H2061   1.083       .  S
C2058      O2062   1.372       .  S
O2060      H2064   0.992       .  S
O2062      H2063   0.992       .  S
C2065      C2066   1.404       .  A
C2065      C2070   1.425       .  A
C2066      C2067   1.399       .  A
C2066      H2071   1.079       .  S
C2067      C2068   1.415       .  A
C2067      O2072   1.371       .  S
C2068      C2069   1.394       .  A
C2069      C2070   1.392       .  A
C2069      H2073   1.084       .  S
C2070      O2074   1.372       .  S
O2072      H2076   0.992       .  S
O2074      H2075   0.992       .  S
C2077      C2078   1.397       .  A
C2077      C2082   1.413       .  A
C2078      C2079   1.394       .  A
C2078      H2083   1.084       .  S
C2079      C2080   1.425       .  A
C2079      O2084   1.373       .  S
C2080      C2081   1.405       .  A
C2081      C2082   1.399       .  A
C2081      H2085   1.078       .  S
C2082      O2086   1.370       .  S
O2084      H2088   0.992       .  S
O2086      H2087   0.992       .  S
C2089      C2090   1.421       .  A
C2089      C2094   1.416       .  A
C2090      C2091   1.396       .  A
C2090      H2095   1.081       .  S
C2091      C2092   1.400       .  A
C2091      O2096   1.372       .  S
C2092      C2093   1.404       .  A
C2093      C2094   1.393       .  A
C2093      H2097   1.084       .  S
C2094      O2098   1.369       .  S
O2096      H2100   0.990       .  S
O2098      H2099   0.993       .  S
C2101      C2102   1.407       .  A
C2101      C2106   1.423       .  A
C2102      C2103   1.398       .  A
C2102      H2107   1.077       .  S
C2103      C2104   1.413       .  A
C2103      O2108   1.372   1_455  S
C2104      C2105   1.398       .  A
C2105      C2106   1.396       .  A
C2105      H2109   1.084       .  S
C2106      O2110   1.372       .  S
O2108      H2112   0.992       .  S
O2110      H2111   0.992       .  S
C2113      C2114   1.404       .  A
C2113      C2118   1.405       .  A
C2114      C2115   1.396       .  A
C2114      H2119   1.083       .  S
C2115      C2116   1.411       .  A
C2115      O2120   1.372       .  S
C2116      C2117   1.412       .  A
C2117      C2118   1.403       .  A
C2117      H2121   1.083       .  S
C2118      O2122   1.370       .  S
O2120      H2124   0.990       .  S
O2122      H2123   0.992       .  S
C2125      C2126   1.403       .  A
C2125      C2130   1.425       .  A
C2126      C2127   1.398       .  A
C2126      H2131   1.078       .  S
C2127      C2128   1.415       .  A
C2127      O2132   1.371       .  S
C2128      C2129   1.398       .  A
C2129      C2130   1.397       .  A
C2129      H2133   1.084   1_565  S
C2130      O2134   1.374       .  S
O2132      H2136   0.992       .  S
O2134      H2135   0.992       .  S
C2137      C2138   1.406       .  A
C2137      C2142   1.418       .  A
C2138      C2139   1.399       .  A
C2138      H2143   1.083       .  S
C2139      C2140   1.409       .  A
C2139      O2144   1.377       .  S
C2140      C2141   1.400       .  A
C2141      C2142   1.403       .  A
C2141      H2145   1.083       .  S
C2142      O2146   1.372       .  S
O2144      H2148   0.991       .  S
O2146      H2147   0.992       .  S
C2149      C2150   1.404       .  A
C2149      C2154   1.427       .  A
C2150      C2151   1.398       .  A
C2150      H2155   1.078       .  S
C2151      C2152   1.414       .  A
C2151      O2156   1.372   1_565  S
C2152      C2153   1.397       .  A
C2153      C2154   1.394       .  A
C2153      H2157   1.084   1_455  S
C2154      O2158   1.371       .  S
O2156      H2160   0.992       .  S
O2158      H2159   0.992   1_455  S
C2161      C2162   1.399       .  A
C2161      C2166   1.408       .  A
C2162      C2163   1.399       .  A
C2162      H2167   1.081       .  S
C2163      C2164   1.417       .  A
C2163      O2168   1.373       .  S
C2164      C2165   1.407       .  A
C2165      C2166   1.394       .  A
C2165      H2169   1.083       .  S
C2166      O2170   1.371       .  S
O2168      H2172   0.992       .  S
O2170      H2171   0.992       .  S
C2173      C2174   1.553       .  S
C2173      C2179   1.532       .  S
C2173      C2177   1.497       .  S
C2173      C3235   1.530       .  S
C2174      H2181   1.080       .  S
C2174      C2175   1.385       .  D
C2175      C2176   1.572       .  S
C2175      C2254   1.556       .  S
C2176      C2180   1.563       .  S
C2176      C2178   1.574       .  S
C2176      H2182   1.107       .  S
C2177      H2183   1.091       .  S
C2177      C2178   1.339       .  D
C2178      C3250   1.478       .  S
C2179      H2184   1.083       .  S
C2179      C2180   1.372       .  D
C2180      C2344   1.542       .  S
C2185      C2186   1.554       .  S
C2185      C2191   1.533       .  S
C2185      C2189   1.493       .  S
C2185      C3211   1.528       .  S
C2186      H2193   1.078       .  S
C2186      C2187   1.385       .  D
C2187      C2188   1.575       .  S
C2187      C2380   1.563       .  S
C2188      C2192   1.568       .  S
C2188      C2190   1.581       .  S
C2188      H2194   1.107       .  S
C2189      H2195   1.092       .  S
C2189      C2190   1.337       .  D
C2190      C3223   1.483       .  S
C2191      H2196   1.083       .  S
C2191      C2192   1.371       .  D
C2192      C2251   1.549       .  S
C2197      C2198   1.550       .  S
C2197      C2203   1.534       .  S
C2197      C2201   1.498       .  S
C2197      C3187   1.531       .  S
C2198      H2205   1.077       .  S
C2198      C2199   1.381       .  D
C2199      C2200   1.566       .  S
C2199      C2345   1.553       .  S
C2200      C2204   1.567       .  S
C2200      C2202   1.575       .  S
C2200      H2206   1.105       .  S
C2201      H2207   1.091       .  S
C2201      C2202   1.341       .  D
C2202      C3202   1.479       .  S
C2203      H2208   1.083       .  S
C2203      C2204   1.375       .  D
C2204      C2377   1.549       .  S
O2209      C2224   1.252       .  A
O2209     Al2217   1.847       .  S
C2210      O2220   1.251       .  A
C2210      O2211   1.269       .  A
C2210      C3199   1.480       .  S
O2211     Al2213   1.939       .  S
O2212      C2214   1.253       .  A
O2212     Al2213   1.856       .  S
Al2213     O2221   1.871       .  S
Al2213     O2223   1.929       .  S
Al2213     O2222   1.777       .  S
C2214      O2227   1.267       .  A
C2214      C3247   1.477       .  S
O2215      C2225   1.250       .  A
O2215     Al2217   1.847       .  S
O2216      C2229   1.251       .  A
O2216     Al2226   1.853       .  S
Al2217     O2230   1.924       .  S
Al2217     O2227   1.928       .  S
Al2217     O2222   1.777       .  S
O2218      C2225   1.269       .  A
O2218     Al2226   1.939       .  S
O2219      C2228   1.267       .  A
O2219     Al2226   1.923       .  S
O2220     Al2226   1.842       .  S
O2221      C2228   1.254       .  A
O2222     Al2226   1.778       .  S
O2223      C2224   1.266       .  A
C2224      C3178   1.477       .  S
C2225      C3226   1.479       .  S
C2228      C3163   1.481       .  S
C2229      O2230   1.268       .  A
C2229      C3154   1.474       .  S
N2231      C2236   1.366       .  A
N2231      C3321   1.364   1_545  A
N2231      H2263   1.030       .  S
N2232      C2239   1.369       .  A
N2232      C2240   1.369       .  A
N2233      C2238   1.367       .  A
N2233      C3323   1.369   1_545  A
N2233      H2264   1.030       .  S
N2234      C2241   1.372       .  A
N2234      C2242   1.370       .  A
C2235      N3317   1.365       .  A
C2235      C2243   1.387       .  A
C2235      C2251   1.445       .  A
C2236      C2252   1.446       .  A
C2236      C2244   1.388       .  A
C2237      N3319   1.369       .  A
C2237      C2245   1.384       .  A
C2237      C2254   1.447       .  A
C2238      C2253   1.454       .  A
C2238      C2246   1.390       .  A
C2239      C2251   1.439       .  A
C2239      C2247   1.374       .  A
C2240      C2254   1.440       .  A
C2240      C2248   1.376       .  A
C2241      C2249   1.374   1_556  A
C2241      C2252   1.445       .  A
C2242      C2250   1.378   1_556  A
C2242      C2253   1.449       .  A
C2243      C3330   1.365       .  A
C2243      H2255   1.079       .  S
C2244      C3329   1.366   1_545  A
C2244      H2256   1.079       .  S
C2245      C3332   1.369       .  A
C2245      H2257   1.079       .  S
C2246      C3331   1.370   1_545  A
C2246      H2258   1.078       .  S
C2247      C2248   1.351       .  A
C2247      H2259   1.061       .  S
C2248      H2260   1.062       .  S
C2249      C2250   1.354       .  A
C2249      H2261   1.064       .  S
C2250      H2262   1.061       .  S
C2252      C2296   1.558       .  S
C2253      C2267   1.558       .  S
C2265      C2266   1.548       .  S
C2265      C2271   1.534       .  S
C2265      C2269   1.497       .  S
C2265      C3127   1.526       .  S
C2266      H2273   1.079       .  S
C2266      C2267   1.382   1_554  D
C2267      C2268   1.574   1_556  S
C2268      C2272   1.576   1_554  S
C2268      C2270   1.585       .  S
C2268      H2274   1.107   1_554  S
C2269      H2275   1.091       .  S
C2269      C2270   1.338       .  D
C2270      C3142   1.490       .  S
C2271      H2276   1.081       .  S
C2271      C2272   1.371   1_554  D
C2272      C2378   1.557       .  S
C2277      C2278   1.541       .  S
C2277      C2283   1.544       .  S
C2277      C2281   1.496       .  S
C2277      C3103   1.529       .  S
C2278      H2285   1.078   1_554  S
C2278      C2279   1.376   1_554  D
C2279      C2280   1.574   1_556  S
C2279      C2379   1.552       .  S
C2280      C2284   1.567   1_554  S
C2280      C2282   1.580       .  S
C2280      H2286   1.107   1_554  S
C2281      H2287   1.092       .  S
C2281      C2282   1.338       .  D
C2282      C3118   1.485       .  S
C2283      H2288   1.079       .  S
C2283      C2284   1.376   1_554  D
C2284      C2343   1.552       .  S
C2289      C2290   1.542       .  S
C2289      C2295   1.550       .  S
C2289      C2293   1.495       .  S
C2289      C3079   1.536       .  S
C2290      H2297   1.076   1_554  S
C2290      C2291   1.379   1_554  D
C2291      C2292   1.565   1_556  S
C2291      C2346   1.547       .  S
C2292      C2296   1.567   1_554  S
C2292      C2294   1.574       .  S
C2292      H2298   1.106   1_554  S
C2293      H2299   1.091       .  S
C2293      C2294   1.339       .  D
C2294      C3091   1.476       .  S
C2295      H2300   1.081       .  S
C2295      C2296   1.379   1_554  D
O2301      C2316   1.258       .  A
O2301     Al2309   1.876       .  S
C2302      O2312   1.253       .  A
C2302      O2303   1.268       .  A
C2302      C3139   1.486       .  S
O2303     Al2305   1.934       .  S
O2304      C2306   1.250       .  A
O2304     Al2305   1.845       .  S
Al2305     O2313   1.848       .  S
Al2305     O2315   1.933       .  S
Al2305     O2314   1.777       .  S
C2306      O2319   1.267       .  A
C2306      C3094   1.473       .  S
O2307      C2317   1.255       .  A
O2307     Al2309   1.865       .  S
O2308      C2321   1.255       .  A
O2308     Al2318   1.869       .  S
Al2309     O2322   1.922       .  S
Al2309     O2319   1.930       .  S
Al2309     O2314   1.783       .  S
O2310      C2317   1.270       .  A
O2310     Al2318   1.934       .  S
O2311      C2320   1.268       .  A
O2311     Al2318   1.934       .  S
O2312     Al2318   1.869       .  S
O2313      C2320   1.252       .  A
O2314     Al2318   1.776       .  S
O2315      C2316   1.268       .  A
C2316      C3043   1.486       .  S
C2317      C3115   1.480       .  S
C2320      C3067   1.480       .  S
C2321      O2322   1.264       .  A
C2321      C3055   1.481       .  S
N2323      C2327   1.366       .  A
N2323      H2355   1.028       .  S
N2324      C2331   1.369       .  A
N2324      C2332   1.367       .  A
N2325      C2329   1.364       .  A
N2325      H2356   1.028       .  S
N2326      C2333   1.367       .  A
N2326      C2334   1.368       .  A
C2327      C2335   1.387       .  A
C2327      C2343   1.444       .  A
C2328      C2344   1.441       .  A
C2328      C2336   1.386       .  A
C2329      C2337   1.385       .  A
C2329      C2346   1.443       .  A
C2330      C2345   1.446       .  A
C2330      C2338   1.387       .  A
C2331      C2343   1.438       .  A
C2331      C2339   1.372   1_556  A
C2332      C2346   1.441       .  A
C2332      C2340   1.377   1_556  A
C2333      C2341   1.376       .  A
C2333      C2344   1.439       .  A
C2334      C2342   1.377       .  A
C2334      C2345   1.440       .  A
C2335      H2347   1.078       .  S
C2336      H2348   1.080       .  S
C2337      H2349   1.080       .  S
C2338      H2350   1.077       .  S
C2339      C2340   1.350       .  A
C2339      H2351   1.060       .  S
C2340      H2352   1.060       .  S
C2341      C2342   1.356       .  A
C2341      H2353   1.061       .  S
C2342      H2354   1.066       .  S
N2357      C2362   1.368       .  A
N2357      C2361   1.364       .  A
N2357      H2389   1.030       .  S
N2358      C2365   1.370       .  A
N2358      C2366   1.370       .  A
N2359      C2364   1.368       .  A
N2359      C2363   1.371       .  A
N2359      H2390   1.031       .  S
N2360      C2367   1.369       .  A
N2360      C2368   1.367       .  A
C2361      C2369   1.385       .  A
C2361      C2377   1.443       .  A
C2362      C2378   1.449       .  A
C2362      C2370   1.388       .  A
C2363      C2371   1.389       .  A
C2363      C2380   1.453       .  A
C2364      C2379   1.448       .  A
C2364      C2372   1.385       .  A
C2365      C2377   1.440       .  A
C2365      C2373   1.375       .  A
C2366      C2380   1.445       .  A
C2366      C2374   1.376       .  A
C2367      C2375   1.372   1_556  A
C2367      C2378   1.436       .  A
C2368      C2376   1.376   1_556  A
C2368      C2379   1.439       .  A
C2369      C2370   1.366       .  A
C2369      H2381   1.081       .  S
C2370      H2382   1.078       .  S
C2371      C2372   1.370       .  A
C2371      H2383   1.077       .  S
C2372      H2384   1.080       .  S
C2373      C2374   1.351       .  A
C2373      H2385   1.064       .  S
C2374      H2386   1.061       .  S
C2375      C2376   1.347       .  A
C2375      H2387   1.061       .  S
C2376      H2388   1.058       .  S
C2391      C3019   1.531       .  S
C2392      C2393   1.382       .  D
C2393      C2394   1.571       .  S
C2393      C2527   1.549       .  S
C2394      C2398   1.567       .  S
C2394      C2396   1.578       .  S
C2394      H2400   1.107       .  S
C2395      H2401   1.092       .  S
C2395      C2396   1.338       .  D
C2396      C3034   1.482       .  S
C2397      C2398   1.372       .  D
C2398      C2596   1.550       .  S
C2403      C2404   1.548       .  S
C2403      C2409   1.536       .  S
C2403      C2407   1.499       .  S
C2403      C2998   1.530       .  S
C2404      H2411   1.079       .  S
C2404      C2405   1.380       .  D
C2405      C2406   1.566       .  S
C2405      C2564   1.548       .  S
C2406      C2410   1.567       .  S
C2406      C2408   1.576       .  S
C2406      H2412   1.106       .  S
C2407      H2413   1.091       .  S
C2407      C2408   1.341       .  D
C2408      C3010   1.482       .  S
C2409      H2414   1.079       .  S
C2409      C2410   1.374       .  D
C2410      C2530   1.551       .  S
C2415      C3502   1.548       .  S
C2415      C3507   1.538       .  S
C2415      C3505   1.496   1_545  S
C2415      C2974   1.531       .  S
C2416      C3501   1.548       .  S
C2416      H3509   1.076       .  S
C2416      C2417   1.378       .  D
C2417      C2418   1.574       .  S
C2417      C2597   1.557       .  S
C2418      C2422   1.566       .  S
C2418      C2420   1.578       .  S
C2418      H2424   1.107       .  S
C2419      C3501   1.497       .  S
C2419      H2425   1.091       .  S
C2419      C2420   1.340       .  D
C2420      C2983   1.477       .  S
C2421      C3501   1.535       .  S
C2421      H3512   1.084       .  S
C2421      C2422   1.375       .  D
C2422      C2561   1.551       .  S
H2423      C3502   1.075       .  S
H2426      C3507   1.084       .  S
O2427      C2442   1.254       .  A
O2427     Al2435   1.862       .  S
C2428      O2438   1.252       .  A
C2428      O2429   1.268       .  A
C2428      C2986   1.475       .  S
O2429     Al2431   1.932       .  S
O2430      C2432   1.252       .  A
O2430     Al2431   1.854       .  S
Al2431     O2439   1.865       .  S
Al2431     O2441   1.920       .  S
Al2431     O2440   1.777       .  S
C2432      O2445   1.268       .  A
C2432      C3031   1.477       .  S
O2433      C2443   1.252       .  A
O2433     Al2435   1.857       .  S
O2434      C2447   1.254       .  A
O2434     Al2444   1.864       .  S
Al2435     O2448   1.935       .  S
Al2435     O2445   1.935       .  S
Al2435     O2440   1.775       .  S
O2436      C2443   1.267       .  A
O2436     Al2444   1.932       .  S
O2437      C2446   1.266       .  A
O2437     Al2444   1.921       .  S
O2438     Al2444   1.847       .  S
O2439      C2446   1.254       .  A
O2440     Al2444   1.779       .  S
O2441      C2442   1.267       .  A
C2442      C2959   1.477       .  S
C2443      C3007   1.480       .  S
C2446      C2935   1.477       .  S
C2447      O2448   1.269       .  A
C2447      C2950   1.485       .  S
C2449      C2450   1.548       .  S
C2449      C2455   1.536       .  S
C2449      C2453   1.496       .  S
C2449      C3070   1.534       .  S
C2450      H2457   1.076       .  S
C2450      C2451   1.380       .  D
C2451      C2452   1.572       .  S
C2451      C3684   1.551       .  S
C2452      C2456   1.577       .  S
C2452      C2454   1.578       .  S
C2452      H2458   1.108       .  S
C2453      H2459   1.091       .  S
C2453      C2454   1.341       .  D
C2454      C2923   1.480       .  S
C2455      H2460   1.080       .  S
C2455      C2456   1.372       .  D
C2456      C2529   1.556       .  S
C2461      C2462   1.560       .  S
C2461      C2467   1.521       .  S
C2461      C2465   1.502       .  S
C2461      C3058   1.536       .  S
C2462      H2469   1.074       .  S
C2462      C2463   1.382       .  D
C2463      C2464   1.568       .  S
C2463      C2563   1.563       .  S
C2464      C2468   1.578       .  S
C2464      C2466   1.580       .  S
C2464      H2470   1.108       .  S
C2465      H2471   1.090       .  S
C2465      C2466   1.348       .  D
C2466      C2911   1.502       .  S
C2467      H2472   1.085       .  S
C2467      C2468   1.369       .  D
C2473      C2474   1.549       .  S
C2473      C2479   1.539       .  S
C2473      C2477   1.499       .  S
C2473      C3046   1.537       .  S
C2474      H2481   1.074       .  S
C2474      C2475   1.382       .  D
C2475      C2476   1.563       .  S
C2476      C2480   1.561       .  S
C2476      C2478   1.571       .  S
C2476      H2482   1.105       .  S
C2477      H2483   1.091       .  S
C2477      C2478   1.342       .  D
C2478      C2899   1.472       .  S
C2479      H2484   1.084       .  S
C2479      C2480   1.377       .  D
C2480      C3648   1.552       .  S
O2485      C2500   1.255       .  A
C2486      O2496   1.258       .  A
C2486      O2487   1.268       .  A
C2486      C2914   1.479       .  S
O2487     Al2489   1.928       .  S
O2488      C2490   1.251       .  A
O2488     Al3575   1.847   1_545  S
Al2489     O3574   1.841       .  S
Al2489     O2497   1.854       .  S
Al2489     O3585   1.925       .  S
Al2489     O3584   1.776       .  S
C2490      O2503   1.265       .  A
C2490      C2902   1.475       .  S
O2491      C2501   1.252       .  A
O2491     Al2493   1.855       .  S
O2492      C2505   1.260       .  A
O2492     Al3588   1.884   1_545  S
Al2493     O2506   1.913       .  S
O2494      C2501   1.267       .  A
O2494     Al3588   1.937   1_545  S
O2495      C2504   1.266       .  A
O2497      C2504   1.253       .  A
O2498     Al3575   1.778   1_545  S
O2499      C2500   1.267       .  A
O2499     Al3575   1.927   1_545  S
C2500      C3082   1.481       .  S
C2501      C2926   1.480       .  S
Al2502     O3578   1.886       .  S
Al2502     O3580   1.935       .  S
C2504      C3106   1.473       .  S
C2505      O2506   1.268       .  A
C2505      C3130   1.478       .  S
N2507      C2512   1.366       .  A
N2507      C2511   1.366       .  A
N2507      H2539   1.029       .  S
N2508      C2515   1.368       .  A
N2508      C2516   1.368       .  A
N2509      C2514   1.366       .  A
N2509      C2513   1.366       .  A
N2509      H2540   1.030       .  S
N2510      C2517   1.368       .  A
N2510      C2518   1.371       .  A
C2511      C2519   1.384       .  A
C2511      C2527   1.443       .  A
C2512      C2528   1.448       .  A
C2513      C2521   1.383       .  A
C2513      C2530   1.443       .  A
C2514      C2529   1.450       .  A
C2514      C2522   1.388       .  A
C2515      C2527   1.438       .  A
C2515      C2523   1.377       .  A
C2516      C2530   1.435       .  A
C2516      C2524   1.373       .  A
C2517      C2525   1.378       .  A
C2517      C2528   1.448       .  A
C2518      C2526   1.374       .  A
C2518      C2529   1.438       .  A
C2520      H2532   1.078       .  S
C2521      C2522   1.362       .  A
C2521      H2533   1.080       .  S
C2522      H2534   1.080       .  S
C2523      C2524   1.349       .  A
C2523      H2535   1.061       .  S
C2524      H2536   1.062       .  S
C2525      C2526   1.356       .  A
C2525      H2537   1.057       .  S
C2526      H2538   1.069       .  S
N2541      C2546   1.364       .  A
N2541      C2545   1.366       .  A
N2541      H2573   1.029       .  S
N2542      C2549   1.370       .  A
N2542      C2550   1.367       .  A
N2543      C2548   1.369       .  A
N2543      C2547   1.365       .  A
N2543      H2574   1.031       .  S
N2544      C2551   1.370       .  A
N2544      C2552   1.370       .  A
C2545      C2553   1.386       .  A
C2545      C2561   1.442       .  A
C2546      C2562   1.442       .  A
C2546      C3640   1.387       .  A
C2547      C2555   1.385       .  A
C2547      C2564   1.444       .  A
C2548      C2563   1.450       .  A
C2548      C2556   1.389       .  A
C2549      C2561   1.439       .  A
C2549      C2557   1.374       .  A
C2550      C2564   1.440       .  A
C2550      C2558   1.377       .  A
C2551      C2559   1.374       .  A
C2551      C2562   1.443       .  A
C2552      C2560   1.370       .  A
C2552      C2563   1.443       .  A
C2553      C3640   1.363       .  A
C2553      H3651   1.079       .  S
C2554      C3632   1.387       .  A
C2554      C3639   1.363       .  A
C2554      H2566   1.079       .  S
C2555      C2556   1.367       .  A
C2555      H2567   1.080       .  S
C2556      H2568   1.077       .  S
C2557      C2558   1.352       .  A
C2557      H2569   1.062       .  S
C2558      H2570   1.062       .  S
C2559      C2560   1.347       .  A
C2559      H2571   1.061       .  S
C2560      H2572   1.051       .  S
C2562      C3566   1.549       .  S
H2565      C3639   1.079       .  S
N2575      C2580   1.365       .  A
N2575      C2579   1.364       .  A
N2575      H2607   1.031       .  S
N2576      C2583   1.366       .  A
N2576      C2584   1.365       .  A
N2577      C2582   1.368       .  A
N2577      C2581   1.367       .  A
N2577      H2608   1.034       .  S
N2578      C2585   1.369       .  A
N2578      C2586   1.368       .  A
C2579      C2595   1.440       .  A
C2580      C2596   1.445       .  A
C2580      C2588   1.389       .  A
C2581      C3675   1.382       .  A
C2581      C2598   1.442       .  A
C2582      C2597   1.453       .  A
C2582      C2590   1.392       .  A
C2583      C2595   1.426       .  A
C2583      C2591   1.374       .  A
C2584      C2598   1.431       .  A
C2584      C2592   1.377       .  A
C2585      C2593   1.373       .  A
C2585      C2596   1.438       .  A
C2586      C2594   1.376       .  A
C2586      C2597   1.443       .  A
C2587      H2599   1.080       .  S
C2589      C3667   1.382       .  A
C2589      C3676   1.369       .  A
C2589      H2601   1.080       .  S
C2590      C3675   1.370       .  A
C2590      H3688   1.076       .  S
C2591      C2592   1.366       .  A
C2591      H2603   1.077       .  S
C2592      H2604   1.068       .  S
C2593      C2594   1.352       .  A
C2593      H2605   1.063       .  S
C2594      H2606   1.058       .  S
C2598      C3537   1.548       .  S
H2602      C3676   1.077       .  S
C2609      C2610   1.551       .  S
C2609      C2615   1.533       .  S
C2609      C2613   1.494       .  S
C2609      C3151   1.526       .  S
C2610      H2617   1.078       .  S
C2610      C2611   1.385       .  D
C2611      C2612   1.574       .  S
C2611      C2747   1.561       .  S
C2612      C2616   1.568       .  S
C2612      C2614   1.582       .  S
C2612      H2618   1.106       .  S
C2613      H2619   1.091       .  S
C2613      C2614   1.339       .  D
C2614      C2887   1.482       .  S
C2615      H2620   1.081       .  S
C2615      C2616   1.370       .  D
C2616      C3900   1.555       .  S
C2621      C2622   1.548       .  S
C2621      C2627   1.532       .  S
C2621      C2625   1.495       .  S
C2621      C3166   1.528       .  S
C2622      H2629   1.078       .  S
C2622      C2623   1.383       .  D
C2623      C2624   1.578       .  S
C2624      C2628   1.563       .  S
C2624      C2626   1.580       .  S
C2624      H2630   1.108       .  S
C2625      H2631   1.091       .  S
C2625      C2626   1.339       .  D
C2626      C2875   1.485       .  S
C2627      H2632   1.082       .  S
C2627      C2628   1.371       .  D
C2628      C2781   1.544       .  S
C2633      C2634   1.544       .  S
C2633      C2639   1.538       .  S
C2633      C2637   1.497       .  S
C2633      C3175   1.531       .  S
C2634      H2641   1.074       .  S
C2634      C2635   1.378       .  D
C2635      C2636   1.573       .  S
C2635      C3868   1.552       .  S
C2636      C2640   1.570       .  S
C2636      C2638   1.577       .  S
C2636      H2642   1.107       .  S
C2637      H2643   1.091       .  S
C2637      C2638   1.340       .  D
C2638      C2863   1.483       .  S
C2639      H2644   1.082       .  S
C2639      C2640   1.375       .  D
O2645      C3746   1.253   1_545  A
O2645     Al2653   1.863       .  S
C2646      O3742   1.253       .  A
C2646      O2647   1.269       .  A
C2646      C2890   1.479       .  S
O2647     Al2649   1.938       .  S
O2648     Al2649   1.845       .  S
Al2649     O2657   1.860       .  S
Al2649     O2659   1.927   1_655  S
Al2649     O3744   1.777       .  S
C2650      O3749   1.268       .  A
C2650      C2866   1.482       .  S
O2651      C2661   1.252       .  A
O2651     Al2653   1.861       .  S
O2652     Al2662   1.862       .  S
Al2653     O2666   1.928       .  S
Al2653     O2663   1.934   1_545  S
O2654     Al2662   1.932   1_455  S
O2655      C3750   1.266   1_545  A
O2655     Al2662   1.926       .  S
O2656      C3732   1.253   1_545  A
O2656     Al2662   1.851       .  S
O2657      C2664   1.252       .  A
O2658     Al3735   1.777   1_545  S
O2658     Al2662   1.777       .  S
C2660      O3731   1.253       .  A
C2660      C3238   1.483       .  S
C2661      C2878   1.479       .  S
O2663      C3736   1.268       .  A
C2664      O3741   1.266       .  A
C2664      C3214   1.478       .  S
C2665      O2666   1.269       .  A
C2665      C3190   1.481       .  S
C2667      C2668   1.558       .  S
C2667      C2673   1.516       .  S
C2667      C2671   1.499       .  S
C2667      C4024   1.527   1_545  S
C2668      H3761   1.078   1_545  S
C2668      C2669   1.382       .  D
C2669      C2670   1.570       .  S
C2669      C2779   1.556       .  S
C2670      C2674   1.585       .  S
C2670      C2672   1.579       .  S
C2670      H2676   1.109       .  S
C2671      H2677   1.089       .  S
C2671      C2672   1.343       .  D
C2672      C2851   1.500       .  S
C2673      H3764   1.085   1_545  S
C2673      C2674   1.368       .  D
C2674      C2815   1.540       .  S
H2675      C3754   1.077       .  S
H2678      C3759   1.085       .  S
C2679      C2680   1.550   1_455  S
C2679      C2685   1.534   1_455  S
C2679      C2683   1.492   1_455  S
C2680      C2681   1.382       .  D
C2681      C2682   1.570       .  S
C2681      C2816   1.552       .  S
C2682      C2686   1.568       .  S
C2682      C2684   1.576       .  S
C2682      H2688   1.108       .  S
C2683      H2689   1.092       .  S
C2683      C2684   1.338       .  D
C2684      C2842   1.477       .  S
C2685      C2686   1.374       .  D
C2686      C2745   1.549       .  S
C2691      C2692   1.556       .  S
C2691      C2697   1.532       .  S
C2691      C2695   1.493       .  S
C2691      C2947   1.532       .  S
C2692      H2699   1.080       .  S
C2692      C2693   1.387       .  D
C2693      C2694   1.568       .  S
C2693      C2748   1.553       .  S
C2694      C2698   1.562       .  S
C2694      C2696   1.571       .  S
C2694      H2700   1.108       .  S
C2695      H2701   1.092       .  S
C2695      C2696   1.337       .  D
C2696      C2827   1.475       .  S
C2697      H2702   1.083       .  S
C2697      C2698   1.374       .  D
C2698      C2780   1.541       .  S
O2703      C2718   1.263       .  A
O2703     Al2711   1.882       .  S
C2704      O2714   1.248       .  A
C2704      O2705   1.267       .  A
C2704      C2830   1.474       .  S
O2705     Al2707   1.930       .  S
O2706      C2708   1.253       .  A
O2706     Al2707   1.870       .  S
Al2707     O2715   1.879       .  S
Al2707     O2717   1.920       .  S
Al2707     O2716   1.769       .  S
C2708      O2721   1.260       .  A
C2708      C2839   1.475       .  S
O2709      C2719   1.261       .  A
O2709     Al2711   1.889       .  S
O2710      C2723   1.251       .  A
O2710     Al2720   1.853       .  S
Al2711     O2724   1.929       .  S
Al2711     O2721   1.919       .  S
Al2711     O2716   1.779       .  S
O2712      C2719   1.271       .  A
O2712     Al2720   1.939       .  S
O2713      C2722   1.263       .  A
O2713     Al2720   1.906       .  S
O2714     Al2720   1.823       .  S
O2715      C2722   1.255       .  A
O2716     Al2720   1.781       .  S
O2717      C2718   1.270       .  A
C2718      C3022   1.479       .  S
C2719      C2854   1.486       .  S
C2722      C2995   1.481       .  S
C2723      O2724   1.265       .  A
C2723      C2971   1.478       .  S
N2725      C2730   1.365       .  A
N2725      C2729   1.365       .  A
N2725      H2757   1.031       .  S
N2726      C2733   1.369       .  A
N2726      C2734   1.367       .  A
N2727      C2732   1.370       .  A
N2727      C2731   1.368       .  A
N2727      H2758   1.033       .  S
N2728      C2735   1.371       .  A
N2728      C2736   1.368       .  A
C2729      C2737   1.386       .  A
C2729      C2745   1.444       .  A
C2730      C2746   1.442       .  A
C2730      C2738   1.385   1_655  A
C2731      C2739   1.382       .  A
C2731      C2748   1.443       .  A
C2732      C2747   1.455       .  A
C2732      C2740   1.391       .  A
C2733      C2745   1.436       .  A
C2733      C2741   1.375       .  A
C2734      C2748   1.439       .  A
C2734      C2742   1.376       .  A
C2735      C2743   1.372       .  A
C2735      C2746   1.436       .  A
C2736      C2744   1.378       .  A
C2736      C2747   1.448       .  A
C2737      C2738   1.361   1_655  A
C2737      H2749   1.079   1_655  S
C2739      C2740   1.369       .  A
C2739      H2751   1.080       .  S
C2740      H2752   1.076       .  S
C2741      C2742   1.354       .  A
C2741      H2753   1.064       .  S
C2742      H2754   1.061       .  S
C2743      C2744   1.351       .  A
C2743      H2755   1.067       .  S
C2744      H2756   1.055       .  S
N2759      C2764   1.372       .  A
N2759      C2763   1.369       .  A
N2759      H2791   1.042       .  S
N2760      C2767   1.365       .  A
N2760      C2768   1.364       .  A
N2761      C2766   1.370       .  A
N2761      C2765   1.369       .  A
N2761      H2792   1.041       .  S
N2762      C2769   1.360       .  A
N2762      C2770   1.361       .  A
C2763      C2771   1.368       .  A
C2763      C2779   1.434       .  A
C2764      C2780   1.431       .  A
C2764      C2772   1.373       .  A
C2765      C2773   1.375       .  A
C2765      C2782   1.436       .  A
C2766      C2781   1.431       .  A
C2766      C2774   1.372       .  A
C2767      C2779   1.438       .  A
C2767      C2775   1.386   1_545  A
C2768      C2782   1.438       .  A
C2768      C2776   1.384   1_545  A
C2769      C2777   1.384       .  A
C2769      C2780   1.429       .  A
C2770      C2778   1.385       .  A
C2770      C2781   1.430       .  A
C2771      C2772   1.352       .  A
C2771      H2783   1.054       .  S
C2772      H2784   1.064       .  S
C2773      C2774   1.354       .  A
C2773      H2785   1.059       .  S
C2774      H2786   1.061       .  S
C2775      C2776   1.367       .  A
C2775      H2787   1.077       .  S
C2776      H3874   1.080       .  S
C2777      C2778   1.359       .  A
C2777      H2789   1.081       .  S
C2778      H2790   1.080       .  S
C2782      C3721   1.551   1_545  S
H2788      C3862   1.080       .  S
N2793      C2798   1.373       .  A
N2793      C2797   1.371       .  A
N2793      H2825   1.040       .  S
N2794      C2801   1.368       .  A
N2794      C2802   1.369       .  A
N2795      C2800   1.368       .  A
N2795      C2799   1.366       .  A
N2795      H2826   1.042       .  S
N2796      C2803   1.365       .  A
N2796      C2804   1.365       .  A
C2797      C2805   1.377       .  A
C2797      C2813   1.441       .  A
C2798      C2814   1.439       .  A
C2798      C2806   1.375       .  A
C2799      C2807   1.381       .  A
C2799      C2816   1.435       .  A
C2800      C2815   1.423       .  A
C2800      C2808   1.373       .  A
C2801      C2813   1.447       .  A
C2801      C2809   1.386   1_655  A
C2802      C2816   1.444       .  A
C2802      C2810   1.384   1_655  A
C2803      C2811   1.386   1_545  A
C2803      C2814   1.440       .  A
C2804      C2812   1.383       .  A
C2804      C2815   1.435       .  A
C2805      C2806   1.352       .  A
C2805      H2817   1.062       .  S
C2806      H2818   1.063       .  S
C2807      C2808   1.359       .  A
C2807      H2819   1.061       .  S
C2808      H2820   1.073       .  S
C2809      C2810   1.365       .  A
C2810      H2822   1.079       .  S
C2811      C2812   1.361   1_565  A
C2811      H3909   1.080       .  S
C2812      H2824   1.081   1_545  S
C2814      C3702   1.554   1_545  S
H2823      C3897   1.079       .  S
C2827      C2828   1.413       .  A
C2827      C2832   1.414       .  A
C2828      C2829   1.400       .  A
C2828      H2833   1.082       .  S
C2829      C2830   1.403       .  A
C2829      O2834   1.369       .  S
C2830      C2831   1.404       .  A
C2831      C2832   1.391       .  A
C2831      H2835   1.084       .  S
C2832      O2836   1.374       .  S
O2834      H2838   0.991       .  S
O2836      H2837   0.992       .  S
C2839      C2840   1.402       .  A
C2839      C2844   1.406       .  A
C2840      C2841   1.399       .  A
C2840      H2845   1.084       .  S
C2841      C2842   1.420       .  A
C2841      O2846   1.372       .  S
C2842      C2843   1.407       .  A
C2843      C2844   1.394       .  A
C2843      H2847   1.083       .  S
C2844      O2848   1.370       .  S
O2846      H2850   0.992       .  S
O2848      H2849   0.992       .  S
C2851      C2852   1.393       .  A
C2851      C2856   1.426       .  A
C2852      C2853   1.402       .  A
C2852      H2857   1.080       .  S
C2853      C2854   1.414       .  A
C2853      O2858   1.362       .  S
C2854      C2855   1.393       .  A
C2855      C2856   1.401       .  A
C2855      H2859   1.083       .  S
C2856      O2860   1.376       .  S
O2858      H2862   0.991       .  S
O2860      H2861   0.992       .  S
C2863      C2864   1.414       .  A
C2863      C2868   1.412       .  A
C2864      C2865   1.404       .  A
C2864      H2869   1.082       .  S
C2865      C2866   1.404       .  A
C2865      O2870   1.370       .  S
C2866      C2867   1.402       .  A
C2867      C2868   1.394       .  A
C2868      O2872   1.372       .  S
O2870      H2874   0.991       .  S
C2875      C2876   1.410       .  A
C2875      C2880   1.415       .  A
C2876      C2877   1.404       .  A
C2876      H2881   1.084       .  S
C2877      C2878   1.407       .  A
C2877      O2882   1.378       .  S
C2878      C2879   1.400       .  A
C2879      C2880   1.400       .  A
C2879      H2883   1.082       .  S
C2880      O2884   1.370       .  S
O2882      H2886   0.992       .  S
O2884      H2885   0.992       .  S
C2887      C2888   1.413       .  A
C2887      C2892   1.411       .  A
C2888      C2889   1.403       .  A
C2888      H2893   1.083       .  S
C2889      C2890   1.406       .  A
C2889      O2894   1.371       .  S
C2890      C2891   1.403       .  A
C2891      C2892   1.395       .  A
C2891      H3981   1.083       .  S
C2892      O3982   1.374       .  S
O2894      H2898   0.992       .  S
H2895      C3977   1.083   1_545  S
O2896      C3978   1.374   1_545  S
O2896      H2897   0.990       .  S
C2899      C2900   1.409       .  A
C2899      C2904   1.411       .  A
C2900      C2901   1.397       .  A
C2900      H2905   1.083       .  S
C2901      C2902   1.406       .  A
C2901      O2906   1.371   1_655  S
C2902      C2903   1.405       .  A
C2903      C2904   1.391       .  A
C2903      H2907   1.084   1_545  S
C2904      O2908   1.373   1_545  S
O2908      H2909   0.992   1_565  S
C2911      C2912   1.419       .  A
C2911      C2916   1.396       .  A
C2912      C2913   1.399       .  A
C2912      H2917   1.084       .  S
C2913      C2914   1.400       .  A
C2913      O2918   1.371       .  S
C2914      C2915   1.409       .  A
C2915      C2916   1.404       .  A
C2915      H2919   1.079   1_655  S
C2916      O2920   1.369   1_655  S
O2918      H2922   0.992       .  S
O2920      H2921   0.989       .  S
C2923      C2924   1.413       .  A
C2923      C2928   1.411       .  A
C2924      C2925   1.401       .  A
C2924      H2929   1.082       .  S
C2925      C2926   1.407       .  A
C2925      O2930   1.371   1_545  S
C2926      C2927   1.404       .  A
C2927      C2928   1.394       .  A
C2927      H2931   1.083       .  S
C2928      O2932   1.372       .  S
O2930      H2934   0.992       .  S
O2932      H2933   0.992       .  S
C2935      C2936   1.398       .  A
C2935      C2940   1.413       .  A
C2936      C2937   1.397       .  A
C2936      H2941   1.084       .  S
C2937      C2938   1.422       .  A
C2937      O2942   1.374       .  S
C2938      C3753   1.529       .  S
C2938      C2939   1.405       .  A
C2939      C2940   1.398       .  A
C2939      H2943   1.078       .  S
C2940      O2944   1.373       .  S
O2942      H2946   0.992       .  S
O2944      H2945   0.992       .  S
C2947      C2948   1.404       .  A
C2947      C2952   1.428       .  A
C2948      C2949   1.399       .  A
C2948      H2953   1.078       .  S
C2949      C2950   1.415       .  A
C2949      O2954   1.372       .  S
C2950      C2951   1.398       .  A
C2951      C2952   1.398       .  A
C2951      H2955   1.084       .  S
C2952      O2956   1.373       .  S
O2954      H2958   0.992       .  S
O2956      H2957   0.992       .  S
C2959      C2960   1.396       .  A
C2959      C2964   1.412       .  A
C2960      C2961   1.394       .  A
C2960      H2965   1.084       .  S
C2961      C2962   1.426       .  A
C2961      O2966   1.372       .  S
C2962      C2963   1.407       .  A
C2963      C2964   1.397       .  A
C2963      H2967   1.077       .  S
C2964      O2968   1.371       .  S
O2966      H2970   0.992       .  S
O2968      H2969   0.992       .  S
C2971      C2972   1.408       .  A
C2971      C2976   1.404       .  A
C2972      C2973   1.396       .  A
C2972      H2977   1.084       .  S
C2973      C2974   1.411       .  A
C2973      O2978   1.368       .  S
C2974      C2975   1.417       .  A
C2975      C2976   1.396       .  A
C2975      H2979   1.083       .  S
C2976      O2980   1.371       .  S
O2978      H2982   0.992       .  S
O2980      H2981   0.992       .  S
C2983      C2984   1.411       .  A
C2983      C2988   1.413       .  A
C2984      C2985   1.398       .  A
C2984      H2989   1.083       .  S
C2985      C2986   1.404       .  A
C2985      O2990   1.370       .  S
C2986      C2987   1.402       .  A
C2987      C2988   1.395       .  A
C2987      H2991   1.084       .  S
C2988      O2992   1.374       .  S
O2990      H2994   0.992       .  S
O2992      H2993   0.991       .  S
C2995      C2996   1.398       .  A
C2995      C3000   1.409       .  A
C2996      C2997   1.394       .  A
C2996      H3001   1.084       .  S
C2997      C2998   1.425       .  A
C2997      O3002   1.371       .  S
C2998      C2999   1.410       .  A
C2999      C3000   1.399       .  A
C2999      H3003   1.078       .  S
C3000      O3004   1.370       .  S
O3002      H3006   0.992       .  S
O3004      H3005   0.992       .  S
C3007      C3008   1.402       .  A
C3007      C3012   1.410       .  A
C3008      C3009   1.402       .  A
C3008      H3013   1.083       .  S
C3009      C3010   1.417       .  A
C3009      O3014   1.372       .  S
C3010      C3011   1.405       .  A
C3011      C3012   1.394       .  A
C3011      H3015   1.083       .  S
C3012      O3016   1.371       .  S
O3014      H3018   0.992       .  S
O3016      H3017   0.992       .  S
C3019      C3020   1.416       .  A
C3019      C3024   1.421       .  A
C3020      C3021   1.393       .  A
C3020      H3025   1.080       .  S
C3021      C3022   1.404       .  A
C3021      O3026   1.374       .  S
C3022      C3023   1.402       .  A
C3023      C3024   1.400       .  A
C3023      H3027   1.084       .  S
C3024      O3028   1.369       .  S
O3026      H3030   0.991       .  S
O3028      H3029   0.993       .  S
C3031      C3032   1.399       .  A
C3031      C3036   1.407       .  A
C3032      C3033   1.401       .  A
C3032      H3037   1.081       .  S
C3033      C3034   1.418       .  A
C3033      O3038   1.372       .  S
C3034      C3035   1.409       .  A
C3035      C3036   1.395       .  A
C3035      H3039   1.083       .  S
C3036      O3040   1.372       .  S
O3038      H3042   0.992       .  S
O3040      H3041   0.992       .  S
C3043      C3044   1.408       .  A
C3043      C3048   1.405       .  A
C3044      C3045   1.404       .  A
C3044      H3049   1.084       .  S
C3045      C3046   1.413       .  A
C3045      O3050   1.371       .  S
C3046      C3047   1.417       .  A
C3047      C3048   1.397       .  A
C3047      H3051   1.083       .  S
C3048      O3052   1.371       .  S
O3050      H3054   0.993       .  S
O3052      H3053   0.992       .  S
C3055      C3056   1.406       .  A
C3055      C3060   1.405       .  A
C3056      C3057   1.401       .  A
C3056      H3061   1.083       .  S
C3057      C3058   1.412       .  A
C3057      O3062   1.371       .  S
C3058      C3059   1.417       .  A
C3059      C3060   1.397       .  A
C3059      H3063   1.084       .  S
C3060      O3064   1.371       .  S
O3062      H3066   0.993       .  S
O3064      H3065   0.992       .  S
C3067      C3068   1.405       .  A
C3067      C3072   1.401       .  A
C3068      C3069   1.394       .  A
C3068      H3073   1.084       .  S
C3069      C3070   1.418       .  A
C3069      O3074   1.369       .  S
C3070      C3071   1.421       .  A
C3071      C3072   1.398       .  A
C3071      H3075   1.079       .  S
C3072      O3076   1.372       .  S
O3074      H3078   0.992       .  S
O3076      H3077   0.992       .  S
C3079      C3080   1.416       .  A
C3079      C3084   1.424       .  A
C3080      C3081   1.399       .  A
C3080      H3085   1.079       .  S
C3081      C3082   1.403       .  A
C3081      O3086   1.371   1_545  S
C3082      C3083   1.401       .  A
C3083      C3084   1.397       .  A
C3083      H3087   1.084   1_655  S
C3084      O3088   1.370       .  S
O3086      H3090   0.991       .  S
O3088      H3089   0.992       .  S
C3091      C3092   1.404       .  A
C3091      C3096   1.418       .  A
C3092      C3093   1.392       .  A
C3092      H3097   1.083       .  S
C3093      C3094   1.409       .  A
C3093      O3098   1.372       .  S
C3094      C3095   1.400       .  A
C3095      C3096   1.401       .  A
C3095      H3099   1.083       .  S
C3096      O3100   1.373       .  S
O3098      H3102   0.992       .  S
O3100      H3101   0.992       .  S
C3103      C3104   1.418       .  A
C3103      C3108   1.422       .  A
C3104      C3105   1.397       .  A
C3104      H3109   1.078       .  S
C3105      C3106   1.402       .  A
C3105      O3110   1.372   1_655  S
C3106      C3107   1.398       .  A
C3107      C3108   1.391       .  A
C3107      H3111   1.082       .  S
C3108      O3112   1.370       .  S
O3112      H3113   0.993       .  S
C3115      C3116   1.400       .  A
C3115      C3120   1.408       .  A
C3116      C3117   1.401       .  A
C3116      H3121   1.081       .  S
C3117      C3118   1.417       .  A
C3117      O3122   1.372       .  S
C3118      C3119   1.410       .  A
C3119      C3120   1.397       .  A
C3119      H3123   1.083       .  S
C3120      O3124   1.372       .  S
O3122      H3126   0.992       .  S
O3124      H3125   0.992       .  S
C3127      C3128   1.406       .  A
C3127      C3132   1.422       .  A
C3128      C3129   1.400       .  A
C3128      H3133   1.079       .  S
C3129      C3130   1.412       .  A
C3129      O3134   1.369   1_545  S
C3130      C3131   1.397       .  A
C3131      C3132   1.390       .  A
C3131      H3135   1.084       .  S
C3132      O3136   1.374       .  S
O3134      H3138   0.992       .  S
O3136      H3137   0.992       .  S
C3139      C3140   1.401       .  A
C3139      C3144   1.410       .  A
C3140      C3141   1.403       .  A
C3140      H3145   1.082       .  S
C3141      C3142   1.419       .  A
C3141      O3146   1.372       .  S
C3142      C3143   1.410       .  A
C3143      C3144   1.400       .  A
C3143      H3147   1.083       .  S
C3144      O3148   1.372       .  S
O3146      H3150   0.992       .  S
O3148      H3149   0.992       .  S
C3151      C3152   1.403       .  A
C3151      C3156   1.425       .  A
C3152      C3153   1.398       .  A
C3152      H3157   1.079       .  S
C3153      C3154   1.415       .  A
C3153      O3158   1.372       .  S
C3154      C3155   1.393       .  A
C3155      C3156   1.391       .  A
C3155      H3159   1.084       .  S
C3156      O3160   1.372       .  S
O3158      H3162   0.992       .  S
O3160      H3161   0.992       .  S
C3163      C3164   1.397       .  A
C3163      C3168   1.413       .  A
C3164      C3165   1.394       .  A
C3164      H3169   1.084       .  S
C3165      C3166   1.425       .  A
C3165      O3170   1.373       .  S
C3166      C3167   1.405       .  A
C3167      C3168   1.398       .  A
C3167      H3171   1.078       .  S
C3168      O3172   1.370       .  S
O3170      H3174   0.992       .  S
O3172      H3173   0.992       .  S
C3175      C3176   1.420       .  A
C3175      C3180   1.419       .  A
C3176      C3177   1.399       .  A
C3176      H3181   1.080       .  S
C3177      C3178   1.401       .  A
C3177      O3182   1.373       .  S
C3178      C3179   1.403       .  A
C3179      C3180   1.393       .  A
C3179      H3183   1.084       .  S
C3180      O3184   1.369       .  S
O3182      H3186   0.991       .  S
O3184      H3185   0.993       .  S
C3187      C3188   1.406       .  A
C3187      C3192   1.424       .  A
C3188      C3189   1.398       .  A
C3188      H3193   1.078       .  S
C3189      C3190   1.414       .  A
C3189      O3194   1.372       .  S
C3190      C3191   1.397       .  A
C3191      C3192   1.396       .  A
C3191      H3195   1.084       .  S
C3192      O3196   1.372       .  S
O3194      H3198   0.992       .  S
O3196      H3197   0.992       .  S
C3199      C3200   1.405       .  A
C3199      C3204   1.405       .  A
C3200      C3201   1.396       .  A
C3200      H3205   1.083       .  S
C3201      C3202   1.410       .  A
C3201      O3206   1.372       .  S
C3202      C3203   1.412       .  A
C3203      C3204   1.402       .  A
C3203      H3207   1.083       .  S
C3204      O3208   1.370       .  S
O3206      H3210   0.990       .  S
O3208      H3209   0.992       .  S
C3211      C3212   1.403       .  A
C3211      C3216   1.426       .  A
C3212      C3213   1.397       .  A
C3212      H3217   1.078       .  S
C3213      C3214   1.415       .  A
C3213      O3218   1.371       .  S
C3214      C3215   1.397       .  A
C3215      C3216   1.395       .  A
C3215      H3219   1.084       .  S
C3216      O3220   1.374       .  S
O3218      H3222   0.991       .  S
O3220      H3221   0.992       .  S
C3223      C3224   1.407       .  A
C3223      C3228   1.418       .  A
C3224      C3225   1.399       .  A
C3224      H3229   1.083       .  S
C3225      C3226   1.409       .  A
C3225      O3230   1.376       .  S
C3226      C3227   1.400       .  A
C3227      C3228   1.402       .  A
C3227      H3231   1.083       .  S
C3228      O3232   1.372       .  S
O3230      H3234   0.991       .  S
O3232      H3233   0.992       .  S
C3235      C3236   1.405       .  A
C3235      C3240   1.426       .  A
C3236      C3237   1.400       .  A
C3236      H3241   1.079       .  S
C3237      C3238   1.415       .  A
C3237      O3242   1.372       .  S
C3238      C3239   1.396       .  A
C3239      C3240   1.394       .  A
C3239      H3243   1.084       .  S
C3240      O3244   1.371       .  S
O3242      H3246   0.992       .  S
O3244      H3245   0.992       .  S
C3247      C3248   1.399       .  A
C3247      C3252   1.408       .  A
C3248      C3249   1.400       .  A
C3248      H3253   1.081       .  S
C3249      C3250   1.417       .  A
C3249      O3254   1.373       .  S
C3250      C3251   1.406       .  A
C3251      C3252   1.394       .  A
C3251      H3255   1.082       .  S
C3252      O3256   1.371       .  S
O3254      H3258   0.992       .  S
O3256      H3257   0.992       .  S
C3259      C3260   1.555       .  S
C3259      C3265   1.529       .  S
C3259      C3263   1.496       .  S
C3259      C4321   1.529       .  S
C3260      H3267   1.079       .  S
C3260      C3261   1.386       .  D
C3261      C3262   1.572       .  S
C3261      C3340   1.558       .  S
C3262      C3266   1.562       .  S
C3262      C3264   1.574       .  S
C3262      H3268   1.107       .  S
C3263      H3269   1.091       .  S
C3263      C3264   1.339       .  D
C3264      C4336   1.478       .  S
C3265      H3270   1.083       .  S
C3265      C3266   1.371       .  D
C3266      C3430   1.539       .  S
C3271      C3272   1.554       .  S
C3271      C3277   1.534       .  S
C3271      C3275   1.494       .  S
C3271      C4297   1.529       .  S
C3272      H3279   1.078       .  S
C3272      C3273   1.386       .  D
C3273      C3274   1.576       .  S
C3273      C3466   1.564       .  S
C3274      C3278   1.567       .  S
C3274      C3276   1.580       .  S
C3274      H3280   1.107       .  S
C3275      H3281   1.091       .  S
C3275      C3276   1.337       .  D
C3276      C4309   1.483       .  S
C3277      H3282   1.084       .  S
C3277      C3278   1.372       .  D
C3278      C3337   1.548       .  S
C3283      C3284   1.550       .  S
C3283      C3289   1.534       .  S
C3283      C3287   1.498       .  S
C3283      C4273   1.531       .  S
C3284      H3291   1.077       .  S
C3284      C3285   1.380       .  D
C3285      C3286   1.568       .  S
C3285      C3431   1.555       .  S
C3286      C3290   1.566       .  S
C3286      C3288   1.577       .  S
C3286      H3292   1.105       .  S
C3287      H3293   1.091       .  S
C3287      C3288   1.342       .  D
C3288      C4288   1.481       .  S
C3289      H3294   1.083       .  S
C3289      C3290   1.375       .  D
C3290      C3463   1.548       .  S
O3295      C3310   1.252       .  A
O3295     Al3303   1.843       .  S
C3296      O3306   1.252       .  A
C3296      O3297   1.270       .  A
C3296      C4285   1.481       .  S
O3297     Al3299   1.939       .  S
O3298      C3300   1.253       .  A
O3298     Al3299   1.858       .  S
Al3299     O3307   1.872       .  S
Al3299     O3309   1.929       .  S
Al3299     O3308   1.777       .  S
C3300      O3313   1.267       .  A
C3300      C4333   1.477       .  S
O3301      C3311   1.250       .  A
O3301     Al3303   1.845       .  S
O3302      C3315   1.252       .  A
O3302     Al3312   1.859       .  S
Al3303     O3316   1.928       .  S
Al3303     O3313   1.928       .  S
Al3303     O3308   1.776       .  S
O3304      C3311   1.269       .  A
O3304     Al3312   1.939       .  S
O3305      C3314   1.267       .  A
O3305     Al3312   1.923       .  S
O3306     Al3312   1.847       .  S
O3307      C3314   1.254       .  A
O3308     Al3312   1.777       .  S
O3309      C3310   1.267       .  A
C3310      C4264   1.475       .  S
C3311      C4312   1.478       .  S
C3314      C4249   1.481       .  S
C3315      O3316   1.268       .  A
C3315      C4240   1.477       .  S
N3317      C3322   1.366       .  A
N3317      H3349   1.031       .  S
N3318      C3325   1.369       .  A
N3318      C3326   1.369       .  A
N3319      C3324   1.368       .  A
N3319      H3350   1.031       .  S
N3320      C3327   1.371       .  A
N3320      C3328   1.370       .  A
C3321      C3329   1.386       .  A
C3321      C3337   1.443       .  A
C3322      C3338   1.443       .  A
C3322      C3330   1.386       .  A
C3323      C3331   1.385       .  A
C3323      C3340   1.448       .  A
C3324      C3339   1.454       .  A
C3324      C3332   1.390       .  A
C3325      C3337   1.438       .  A
C3325      C3333   1.374       .  A
C3326      C3340   1.442       .  A
C3326      C3334   1.376       .  A
C3327      C3335   1.374   1_556  A
C3327      C3338   1.443       .  A
C3328      C3336   1.377   1_556  A
C3328      C3339   1.446       .  A
C3329      H3341   1.080       .  S
C3330      H3342   1.079       .  S
C3331      H3343   1.079       .  S
C3332      H3344   1.078       .  S
C3333      C3334   1.352       .  A
C3333      H3345   1.061       .  S
C3334      H3346   1.062       .  S
C3335      C3336   1.353       .  A
C3335      H3347   1.062       .  S
C3336      H3348   1.061       .  S
C3338      C3382   1.555       .  S
C3339      C3353   1.558       .  S
C3351      C3352   1.547       .  S
C3351      C3357   1.531       .  S
C3351      C3355   1.497       .  S
C3351      C4213   1.524       .  S
C3352      H3359   1.079       .  S
C3352      C3353   1.381   1_554  D
C3353      C3354   1.575   1_556  S
C3354      C3358   1.576   1_554  S
C3354      C3356   1.586       .  S
C3354      H3360   1.107   1_554  S
C3355      H3361   1.091       .  S
C3355      C3356   1.339       .  D
C3356      C4228   1.491       .  S
C3357      H3362   1.081       .  S
C3357      C3358   1.370   1_554  D
C3358      C3464   1.556       .  S
C3363      C3364   1.542   1_554  S
C3363      C3369   1.544       .  S
C3363      C3367   1.497       .  S
C3363      C4189   1.530       .  S
C3364      H3371   1.077       .  S
C3364      C3365   1.377       .  D
C3365      C3366   1.575   1_556  S
C3365      C3465   1.552       .  S
C3366      C3370   1.567   1_554  S
C3366      C3368   1.580       .  S
C3366      H3372   1.107   1_554  S
C3367      H3373   1.092       .  S
C3367      C3368   1.337       .  D
C3368      C4204   1.487       .  S
C3369      H3374   1.080       .  S
C3369      C3370   1.376   1_554  D
C3370      C3429   1.552       .  S
C3375      C3376   1.539       .  S
C3375      C3381   1.550       .  S
C3375      C3379   1.496       .  S
C3375      C4165   1.532       .  S
C3376      H3383   1.079   1_554  S
C3376      C3377   1.377   1_554  D
C3377      C3378   1.561   1_556  S
C3377      C3432   1.541       .  S
C3378      C3382   1.565   1_554  S
C3378      C3380   1.571       .  S
C3378      H3384   1.106   1_554  S
C3379      H3385   1.091       .  S
C3379      C3380   1.340       .  D
C3380      C4177   1.474       .  S
C3381      H3386   1.080       .  S
C3381      C3382   1.381   1_554  D
O3387      C3402   1.257       .  A
O3387     Al3395   1.869       .  S
C3388      O3398   1.254       .  A
C3388      O3389   1.269       .  A
C3388      C4225   1.485       .  S
O3389     Al3391   1.936       .  S
O3390      C3392   1.249       .  A
O3390     Al3391   1.840       .  S
Al3391     O3399   1.841       .  S
Al3391     O3401   1.934       .  S
Al3391     O3400   1.776       .  S
C3392      O3405   1.266       .  A
C3392      C4180   1.469       .  S
O3393      C3403   1.255       .  A
O3393     Al3395   1.866       .  S
O3394      C3407   1.255       .  A
O3394     Al3404   1.871       .  S
Al3395     O3408   1.923       .  S
Al3395     O3405   1.926       .  S
Al3395     O3400   1.780       .  S
O3396      C3403   1.270       .  A
O3396     Al3404   1.935       .  S
O3397      C3406   1.267       .  A
O3397     Al3404   1.931       .  S
O3398     Al3404   1.867       .  S
O3399      C3406   1.251       .  A
O3400     Al3404   1.775       .  S
O3401      C3402   1.268       .  A
C3402      C4129   1.485       .  S
C3403      C4201   1.480       .  S
C3406      C4153   1.477       .  S
C3407      O3408   1.265       .  A
C3407      C4141   1.480       .  S
N3409      C3413   1.367       .  A
N3409      H3441   1.029       .  S
N3410      C3417   1.368       .  A
N3410      C3418   1.365       .  A
N3411      C3415   1.363       .  A
N3411      H3442   1.029       .  S
N3412      C3419   1.366       .  A
N3412      C3420   1.368       .  A
C3413      C3421   1.385       .  A
C3413      C3429   1.443       .  A
C3414      C3430   1.441       .  A
C3414      C3422   1.386       .  A
C3415      C3423   1.385       .  A
C3415      C3432   1.442       .  A
C3416      C3431   1.447       .  A
C3416      C3424   1.388       .  A
C3417      C3429   1.435       .  A
C3417      C3425   1.372   1_556  A
C3418      C3432   1.440       .  A
C3418      C3426   1.378   1_556  A
C3419      C3427   1.376       .  A
C3419      C3430   1.438       .  A
C3420      C3428   1.376       .  A
C3420      C3431   1.439       .  A
C3421      H3433   1.078       .  S
C3422      H3434   1.080       .  S
C3423      H3435   1.080       .  S
C3424      H3436   1.077       .  S
C3425      C3426   1.351       .  A
C3425      H3437   1.062       .  S
C3426      H3438   1.059       .  S
C3427      C3428   1.355       .  A
C3427      H3439   1.061       .  S
C3428      H3440   1.065       .  S
N3443      C3448   1.368       .  A
N3443      C3447   1.364       .  A
N3443      H3475   1.031       .  S
N3444      C3451   1.370       .  A
N3444      C3452   1.370       .  A
N3445      C3450   1.368       .  A
N3445      C3449   1.371       .  A
N3445      H3476   1.031       .  S
N3446      C3453   1.369       .  A
N3446      C3454   1.367       .  A
C3447      C3455   1.385       .  A
C3447      C3463   1.442       .  A
C3448      C3464   1.448       .  A
C3448      C3456   1.388       .  A
C3449      C3457   1.389       .  A
C3449      C3466   1.454       .  A
C3450      C3465   1.448       .  A
C3450      C3458   1.384       .  A
C3451      C3463   1.440       .  A
C3451      C3459   1.375       .  A
C3452      C3466   1.445       .  A
C3452      C3460   1.376       .  A
C3453      C3461   1.372   1_556  A
C3453      C3464   1.434       .  A
C3454      C3462   1.376   1_556  A
C3454      C3465   1.437       .  A
C3455      C3456   1.365       .  A
C3455      H3467   1.081       .  S
C3456      H3468   1.078       .  S
C3457      C3458   1.370       .  A
C3457      H3469   1.077       .  S
C3458      H3470   1.080       .  S
C3459      C3460   1.351       .  A
C3459      H3471   1.064       .  S
C3460      H3472   1.062       .  S
C3461      C3462   1.348       .  A
C3461      H3473   1.062       .  S
C3462      H3474   1.059       .  S
C3477      C4105   1.529       .  S
C3478      C3479   1.382       .  D
C3479      C3480   1.571       .  S
C3479      C3613   1.550       .  S
C3480      C3484   1.566       .  S
C3480      C3482   1.580       .  S
C3480      H3486   1.107       .  S
C3481      H3487   1.091       .  S
C3481      C3482   1.340       .  D
C3482      C4120   1.484       .  S
C3483      C3484   1.370       .  D
C3484      C3682   1.550       .  S
C3489      C3490   1.547       .  S
C3489      C3495   1.535       .  S
C3489      C3493   1.500       .  S
C3489      C4084   1.528       .  S
C3490      H3497   1.079       .  S
C3490      C3491   1.380       .  D
C3491      C3492   1.567       .  S
C3491      C3650   1.548       .  S
C3492      C3496   1.568       .  S
C3492      C3494   1.577       .  S
C3492      H3498   1.106       .  S
C3493      H3499   1.091       .  S
C3493      C3494   1.339       .  D
C3494      C4096   1.484       .  S
C3495      H3500   1.079       .  S
C3495      C3496   1.373       .  D
C3496      C3616   1.550       .  S
C3501      C4060   1.529       .  S
C3502      C3503   1.378   1_545  D
C3503      C3504   1.573       .  S
C3503      C3683   1.557       .  S
C3504      C3508   1.564       .  S
C3504      C3506   1.577       .  S
C3504      H3510   1.107       .  S
C3505      H3511   1.091       .  S
C3505      C3506   1.340       .  D
C3506      C4069   1.476       .  S
C3507      C3508   1.377   1_545  D
C3508      C3647   1.551       .  S
O3513      C3528   1.254       .  A
O3513     Al3521   1.865       .  S
C3514      O3524   1.252       .  A
C3514      O3515   1.268       .  A
C3514      C4072   1.474       .  S
O3515     Al3517   1.931       .  S
O3516      C3518   1.252       .  A
O3516     Al3517   1.857       .  S
Al3517     O3525   1.863       .  S
Al3517     O3527   1.923       .  S
Al3517     O3526   1.777       .  S
C3518      O3531   1.268       .  A
C3518      C4117   1.479       .  S
O3519      C3529   1.252       .  A
O3519     Al3521   1.858       .  S
O3520      C3533   1.253       .  A
O3520     Al3530   1.864       .  S
Al3521     O3534   1.934       .  S
Al3521     O3531   1.937       .  S
Al3521     O3526   1.775       .  S
O3522      C3529   1.268       .  A
O3522     Al3530   1.934       .  S
O3523      C3532   1.266       .  A
O3523     Al3530   1.921       .  S
O3524     Al3530   1.846       .  S
O3525      C3532   1.254       .  A
O3526     Al3530   1.780       .  S
O3527      C3528   1.267       .  A
C3528      C4045   1.479       .  S
C3529      C4093   1.482       .  S
C3532      C4021   1.476       .  S
C3533      O3534   1.269       .  A
C3533      C4036   1.484       .  S
C3535      C3536   1.548       .  S
C3535      C3541   1.536       .  S
C3535      C3539   1.497       .  S
C3535      C4156   1.532       .  S
C3536      H3543   1.077       .  S
C3536      C3537   1.380       .  D
C3537      C3538   1.569       .  S
C3538      C3542   1.576       .  S
C3538      C3540   1.577       .  S
C3538      H3544   1.108       .  S
C3539      H3545   1.091       .  S
C3539      C3540   1.341       .  D
C3540      C4009   1.480       .  S
C3541      H3546   1.080       .  S
C3541      C3542   1.372       .  D
C3542      C3615   1.553       .  S
C3547      C3548   1.562       .  S
C3547      C3553   1.518       .  S
C3547      C3551   1.503       .  S
C3547      C4144   1.535       .  S
C3548      H3555   1.076       .  S
C3548      C3549   1.384       .  D
C3549      C3550   1.566       .  S
C3549      C3649   1.565       .  S
C3550      C3554   1.577       .  S
C3550      C3552   1.579       .  S
C3550      H3556   1.108       .  S
C3551      H3557   1.090       .  S
C3551      C3552   1.349       .  D
C3552      C3997   1.500       .  S
C3553      H3558   1.085       .  S
C3553      C3554   1.368       .  D
C3559      C3560   1.550       .  S
C3559      C3565   1.540       .  S
C3559      C3563   1.498       .  S
C3559      C4132   1.538       .  S
C3560      H3567   1.072       .  S
C3560      C3561   1.382       .  D
C3561      C3562   1.558       .  S
C3562      C3566   1.562       .  S
C3562      C3564   1.569       .  S
C3562      H3568   1.105       .  S
C3563      H3569   1.091       .  S
C3563      C3564   1.342       .  D
C3564      C3985   1.471       .  S
C3565      H3570   1.084       .  S
C3565      C3566   1.376       .  D
O3571      C3586   1.255       .  A
C3572      O3582   1.257       .  A
C3572      O3573   1.267       .  A
C3572      C4000   1.476       .  S
O3573     Al3575   1.926       .  S
O3574      C3576   1.250       .  A
Al3575     O3583   1.855       .  S
C3576      O3589   1.264       .  A
C3576      C3988   1.474       .  S
O3577      C3587   1.252       .  A
O3577     Al3579   1.853       .  S
O3578      C3591   1.260       .  A
Al3579     O3592   1.909       .  S
O3580      C3587   1.266       .  A
O3581      C3590   1.266       .  A
O3583      C3590   1.254       .  A
O3585      C3586   1.266       .  A
C3586      C4168   1.477       .  S
C3587      C4012   1.479       .  S
C3590      C4192   1.475       .  S
C3591      O3592   1.268       .  A
C3591      C4216   1.476       .  S
N3593      C3598   1.365       .  A
N3593      C3597   1.366       .  A
N3593      H3625   1.030       .  S
N3594      C3601   1.368       .  A
N3594      C3602   1.367       .  A
N3595      C3600   1.367       .  A
N3595      C3599   1.366       .  A
N3595      H3626   1.031       .  S
N3596      C3603   1.367       .  A
N3596      C3604   1.370       .  A
C3597      C3605   1.386       .  A
C3597      C3613   1.445       .  A
C3598      C3614   1.444       .  A
C3599      C3607   1.384       .  A
C3599      C3616   1.443       .  A
C3600      C3615   1.450       .  A
C3600      C3608   1.388       .  A
C3601      C3613   1.438       .  A
C3601      C3609   1.377       .  A
C3602      C3616   1.434       .  A
C3602      C3610   1.373       .  A
C3603      C3611   1.378       .  A
C3603      C3614   1.445       .  A
C3604      C3612   1.375       .  A
C3604      C3615   1.436       .  A
C3606      H3618   1.079       .  S
C3607      C3608   1.362       .  A
C3607      H3619   1.080       .  S
C3608      H3620   1.079       .  S
C3609      C3610   1.350       .  A
C3609      H3621   1.062       .  S
C3610      H3622   1.062       .  S
C3611      C3612   1.356       .  A
C3611      H3623   1.059       .  S
C3612      H3624   1.069       .  S
N3627      C3632   1.363   1_565  A
N3627      C3631   1.366       .  A
N3627      H3659   1.029       .  S
N3628      C3635   1.370       .  A
N3628      C3636   1.367       .  A
N3629      C3634   1.369       .  A
N3629      C3633   1.365       .  A
N3629      H3660   1.031       .  S
N3630      C3637   1.372       .  A
N3630      C3638   1.371       .  A
C3631      C3639   1.385   1_565  A
C3631      C3647   1.440       .  A
C3632      C3648   1.442       .  A
C3633      C3641   1.385       .  A
C3633      C3650   1.444       .  A
C3634      C3649   1.450       .  A
C3634      C3642   1.389       .  A
C3635      C3647   1.439       .  A
C3635      C3643   1.374       .  A
C3636      C3650   1.441       .  A
C3636      C3644   1.377       .  A
C3637      C3645   1.374       .  A
C3637      C3648   1.446   1_565  A
C3638      C3646   1.370       .  A
C3638      C3649   1.447       .  A
C3640      H3652   1.079       .  S
C3641      C3642   1.368       .  A
C3641      H3653   1.080       .  S
C3642      H3654   1.077       .  S
C3643      C3644   1.351       .  A
C3643      H3655   1.062       .  S
C3644      H3656   1.061       .  S
C3645      C3646   1.348       .  A
C3645      H3657   1.060   1_565  S
C3646      H3658   1.051       .  S
N3661      C3666   1.364       .  A
N3661      C3665   1.363       .  A
N3661      H3693   1.031       .  S
N3662      C3669   1.366       .  A
N3662      C3670   1.366       .  A
N3663      C3668   1.368       .  A
N3663      C3667   1.368   1_565  A
N3663      H3694   1.034       .  S
N3664      C3671   1.369       .  A
N3664      C3672   1.368       .  A
C3665      C3681   1.438       .  A
C3666      C3682   1.444       .  A
C3666      C3674   1.389       .  A
C3667      C3684   1.442       .  A
C3668      C3683   1.453       .  A
C3668      C3676   1.391   1_565  A
C3669      C3681   1.426       .  A
C3669      C3677   1.373       .  A
C3670      C3684   1.431   1_565  A
C3670      C3678   1.376       .  A
C3671      C3679   1.373       .  A
C3671      C3682   1.438       .  A
C3672      C3680   1.376       .  A
C3672      C3683   1.442       .  A
C3673      H3685   1.080       .  S
C3675      H3687   1.080       .  S
C3677      C3678   1.365       .  A
C3677      H3689   1.076       .  S
C3678      H3690   1.067       .  S
C3679      C3680   1.353       .  A
C3679      H3691   1.063       .  S
C3680      H3692   1.059       .  S
C3695      C3696   1.553       .  S
C3695      C3701   1.533       .  S
C3695      C3699   1.495       .  S
C3695      C4237   1.528       .  S
C3696      H3703   1.078       .  S
C3696      C3697   1.385       .  D
C3697      C3698   1.575       .  S
C3697      C3833   1.564       .  S
C3698      C3702   1.568       .  S
C3698      C3700   1.581       .  S
C3698      H3704   1.106       .  S
C3699      H3705   1.091       .  S
C3699      C3700   1.339       .  D
C3700      C3973   1.482       .  S
C3701      H3706   1.082       .  S
C3701      C3702   1.371       .  D
C3707      C3708   1.547       .  S
C3707      C3713   1.532       .  S
C3707      C3711   1.496       .  S
C3707      C4252   1.528       .  S
C3708      H3715   1.079       .  S
C3708      C3709   1.383       .  D
C3709      C3710   1.579       .  S
C3710      C3714   1.564       .  S
C3710      C3712   1.580       .  S
C3710      H3716   1.108       .  S
C3711      H3717   1.091       .  S
C3711      C3712   1.340       .  D
C3712      C3961   1.486       .  S
C3713      H3718   1.082       .  S
C3713      C3714   1.371       .  D
C3714      C3867   1.545       .  S
C3719      C3720   1.547       .  S
C3719      C3725   1.536       .  S
C3719      C3723   1.496       .  S
C3719      C4261   1.530       .  S
C3720      H3727   1.074       .  S
C3720      C3721   1.380       .  D
C3721      C3722   1.571       .  S
C3722      C3726   1.570       .  S
C3722      C3724   1.576       .  S
C3722      H3728   1.107       .  S
C3723      H3729   1.092       .  S
C3723      C3724   1.340       .  D
C3724      C3949   1.481       .  S
C3725      H3730   1.083       .  S
C3725      C3726   1.373       .  D
O3731     Al3739   1.866       .  S
C3732      O3733   1.269       .  A
C3732      C3976   1.479       .  S
O3733     Al3735   1.936       .  S
O3734     Al3735   1.846       .  S
Al3735     O3743   1.864       .  S
Al3735     O3745   1.924   1_655  S
C3736      C3952   1.481       .  S
O3737      C3747   1.252       .  A
O3737     Al3739   1.859       .  S
O3738     Al3748   1.866       .  S
Al3739     O3752   1.925       .  S
Al3739     O3749   1.934       .  S
O3740     Al3748   1.934   1_455  S
O3741     Al3748   1.924       .  S
O3742     Al3748   1.849       .  S
O3743      C3750   1.253       .  A
O3744     Al3748   1.777       .  S
C3746      C4324   1.481       .  S
C3747      C3964   1.480       .  S
C3750      C4300   1.480       .  S
C3751      O3752   1.268       .  A
C3751      C4276   1.480       .  S
C3753      C3754   1.559       .  S
C3753      C3759   1.516       .  S
C3753      C3757   1.499       .  S
C3754      C3755   1.381       .  D
C3755      C3756   1.572       .  S
C3755      C3865   1.559       .  S
C3756      C3760   1.585       .  S
C3756      C3758   1.580       .  S
C3756      H3762   1.109       .  S
C3757      H3763   1.089       .  S
C3757      C3758   1.344       .  D
C3758      C3937   1.501       .  S
C3759      C3760   1.369       .  D
C3760      C3901   1.539       .  S
C3765      C3766   1.551   1_455  S
C3765      C3771   1.534   1_455  S
C3765      C3769   1.493   1_455  S
C3766      C3767   1.381       .  D
C3767      C3768   1.571       .  S
C3767      C3902   1.553       .  S
C3768      C3772   1.571       .  S
C3768      C3770   1.578       .  S
C3768      H3774   1.108       .  S
C3769      H3775   1.092       .  S
C3769      C3770   1.339       .  D
C3770      C3928   1.479       .  S
C3771      C3772   1.374       .  D
C3772      C3831   1.552       .  S
C3777      C3778   1.555       .  S
C3777      C3783   1.531       .  S
C3777      C3781   1.494       .  S
C3777      C4033   1.532       .  S
C3778      H3785   1.080       .  S
C3778      C3779   1.385       .  D
C3779      C3780   1.569       .  S
C3779      C3834   1.553       .  S
C3780      C3784   1.564       .  S
C3780      C3782   1.573       .  S
C3780      H3786   1.108       .  S
C3781      H3787   1.092       .  S
C3781      C3782   1.338       .  D
C3782      C3913   1.477       .  S
C3783      H3788   1.082       .  S
C3783      C3784   1.374       .  D
C3784      C3866   1.543       .  S
O3789      C3804   1.262       .  A
O3789     Al3797   1.881       .  S
C3790      O3800   1.248       .  A
C3790      O3791   1.267       .  A
C3790      C3916   1.474       .  S
O3791     Al3793   1.929       .  S
O3792      C3794   1.253       .  A
O3792     Al3793   1.869       .  S
Al3793     O3801   1.874       .  S
Al3793     O3803   1.920       .  S
Al3793     O3802   1.769       .  S
C3794      O3807   1.261       .  A
C3794      C3925   1.474       .  S
O3795      C3805   1.261       .  A
O3795     Al3797   1.891       .  S
O3796      C3809   1.251       .  A
O3796     Al3806   1.855       .  S
Al3797     O3810   1.928       .  S
Al3797     O3807   1.919       .  S
Al3797     O3802   1.778       .  S
O3798      C3805   1.273       .  A
O3798     Al3806   1.942       .  S
O3799      C3808   1.264       .  A
O3799     Al3806   1.907       .  S
O3800     Al3806   1.823       .  S
O3801      C3808   1.254       .  A
O3802     Al3806   1.777       .  S
O3803      C3804   1.270       .  A
C3804      C4108   1.477       .  S
C3805      C3940   1.487       .  S
C3808      C4081   1.479       .  S
C3809      O3810   1.265       .  A
C3809      C4057   1.478       .  S
N3811      C3816   1.365       .  A
N3811      C3815   1.367       .  A
N3811      H3843   1.031       .  S
N3812      C3819   1.369       .  A
N3812      C3820   1.367       .  A
N3813      C3818   1.371       .  A
N3813      C3817   1.369       .  A
N3813      H3844   1.033       .  S
N3814      C3821   1.370       .  A
N3814      C3822   1.368       .  A
C3815      C3823   1.386       .  A
C3815      C3831   1.445       .  A
C3816      C3832   1.444       .  A
C3816      C3824   1.386   1_655  A
C3817      C3825   1.382       .  A
C3817      C3834   1.444       .  A
C3818      C3833   1.455       .  A
C3818      C3826   1.391       .  A
C3819      C3831   1.436       .  A
C3819      C3827   1.375       .  A
C3820      C3834   1.438       .  A
C3820      C3828   1.377       .  A
C3821      C3829   1.373       .  A
C3821      C3832   1.437       .  A
C3822      C3830   1.378       .  A
C3822      C3833   1.448       .  A
C3823      C3824   1.362   1_655  A
C3823      H3835   1.080   1_655  S
C3825      C3826   1.369       .  A
C3825      H3837   1.080       .  S
C3826      H3838   1.076       .  S
C3827      C3828   1.354       .  A
C3827      H3839   1.064       .  S
C3828      H3840   1.062       .  S
C3829      C3830   1.351       .  A
C3829      H3841   1.066       .  S
C3830      H3842   1.056       .  S
N3845      C3850   1.372       .  A
N3845      C3849   1.370       .  A
N3845      H3877   1.041       .  S
N3846      C3853   1.366       .  A
N3846      C3854   1.365       .  A
N3847      C3852   1.370       .  A
N3847      C3851   1.368       .  A
N3847      H3878   1.041       .  S
N3848      C3855   1.361       .  A
N3848      C3856   1.362       .  A
C3849      C3857   1.369       .  A
C3849      C3865   1.435       .  A
C3850      C3866   1.433       .  A
C3850      C3858   1.373       .  A
C3851      C3859   1.376       .  A
C3851      C3868   1.435       .  A
C3852      C3867   1.430       .  A
C3852      C3860   1.372       .  A
C3853      C3865   1.441       .  A
C3853      C3861   1.387       .  A
C3854      C3868   1.441       .  A
C3854      C3862   1.385       .  A
C3855      C3863   1.385       .  A
C3855      C3866   1.432       .  A
C3856      C3864   1.384       .  A
C3856      C3867   1.430       .  A
C3857      C3858   1.353       .  A
C3857      H3869   1.056       .  S
C3858      H3870   1.063       .  S
C3859      C3860   1.355       .  A
C3859      H3871   1.059       .  S
C3860      H3872   1.063       .  S
C3861      C3862   1.367       .  A
C3861      H3873   1.077       .  S
C3863      C3864   1.359       .  A
C3863      H3875   1.080       .  S
C3864      H3876   1.080       .  S
N3879      C3884   1.373       .  A
N3879      C3883   1.371       .  A
N3879      H3911   1.040       .  S
N3880      C3887   1.369       .  A
N3880      C3888   1.370       .  A
N3881      C3886   1.367       .  A
N3881      C3885   1.366       .  A
N3881      H3912   1.042       .  S
N3882      C3889   1.365       .  A
N3882      C3890   1.365       .  A
C3883      C3891   1.377       .  A
C3883      C3899   1.441       .  A
C3884      C3900   1.438       .  A
C3884      C3892   1.375       .  A
C3885      C3893   1.380       .  A
C3885      C3902   1.434       .  A
C3886      C3901   1.423       .  A
C3886      C3894   1.375       .  A
C3887      C3899   1.447       .  A
C3887      C3895   1.386   1_655  A
C3888      C3902   1.445       .  A
C3888      C3896   1.385   1_655  A
C3889      C3897   1.386       .  A
C3889      C3900   1.441       .  A
C3890      C3898   1.383       .  A
C3890      C3901   1.435       .  A
C3891      C3892   1.352       .  A
C3891      H3903   1.061       .  S
C3892      H3904   1.063       .  S
C3893      C3894   1.362       .  A
C3893      H3905   1.063       .  S
C3894      H3906   1.074       .  S
C3895      C3896   1.365       .  A
C3896      H3908   1.079       .  S
C3897      C3898   1.361       .  A
C3898      H3910   1.081       .  S
C3913      C3914   1.413       .  A
C3913      C3918   1.414       .  A
C3914      C3915   1.400       .  A
C3914      H3919   1.082       .  S
C3915      C3916   1.403       .  A
C3915      O3920   1.370       .  S
C3916      C3917   1.404       .  A
C3917      C3918   1.391       .  A
C3917      H3921   1.084       .  S
C3918      O3922   1.373       .  S
O3920      H3924   0.991       .  S
O3922      H3923   0.993       .  S
C3925      C3926   1.402       .  A
C3925      C3930   1.406       .  A
C3926      C3927   1.399       .  A
C3926      H3931   1.084       .  S
C3927      C3928   1.420       .  A
C3927      O3932   1.372       .  S
C3928      C3929   1.407       .  A
C3929      C3930   1.394       .  A
C3929      H3933   1.082       .  S
C3930      O3934   1.370       .  S
O3932      H3936   0.992       .  S
O3934      H3935   0.992       .  S
C3937      C3938   1.393       .  A
C3937      C3942   1.426       .  A
C3938      C3939   1.402       .  A
C3938      H3943   1.081       .  S
C3939      C3940   1.415       .  A
C3939      O3944   1.361       .  S
C3940      C3941   1.393       .  A
C3941      C3942   1.401       .  A
C3941      H3945   1.083       .  S
C3942      O3946   1.376       .  S
O3944      H3948   0.991       .  S
O3946      H3947   0.992       .  S
C3949      C3950   1.414       .  A
C3949      C3954   1.413       .  A
C3950      C3951   1.403       .  A
C3950      H3955   1.083   1_565  S
C3951      C3952   1.404       .  A
C3951      O3956   1.370   1_565  S
C3952      C3953   1.402       .  A
C3953      C3954   1.393       .  A
C3954      O3958   1.372       .  S
O3956      H3960   0.992       .  S
C3961      C3962   1.410       .  A
C3961      C3966   1.416       .  A
C3962      C3963   1.404       .  A
C3962      H3967   1.084       .  S
C3963      C3964   1.408       .  A
C3963      O3968   1.379       .  S
C3964      C3965   1.400       .  A
C3965      C3966   1.401       .  A
C3965      H3969   1.083       .  S
C3966      O3970   1.370       .  S
O3968      H3972   0.992       .  S
O3970      H3971   0.992       .  S
C3973      C3974   1.413       .  A
C3973      C3978   1.411       .  A
C3974      C3975   1.402       .  A
C3974      H3979   1.083       .  S
C3975      C3976   1.406       .  A
C3975      O3980   1.371       .  S
C3976      C3977   1.403       .  A
C3977      C3978   1.395       .  A
O3980      H3984   0.992       .  S
O3982      H3983   0.990       .  S
C3985      C3986   1.410       .  A
C3985      C3990   1.410       .  A
C3986      C3987   1.398       .  A
C3986      H3991   1.083       .  S
C3987      C3988   1.406       .  A
C3987      O3992   1.371   1_655  S
C3988      C3989   1.404       .  A
C3989      C3990   1.388       .  A
C3989      H3993   1.084       .  S
C3990      O3994   1.373       .  S
O3994      H3995   0.992       .  S
C3997      C3998   1.419       .  A
C3997      C4002   1.396       .  A
C3998      C3999   1.399       .  A
C3998      H4003   1.084       .  S
C3999      C4000   1.400       .  A
C3999      O4004   1.371       .  S
C4000      C4001   1.408       .  A
C4001      C4002   1.401       .  A
C4001      H4005   1.078   1_655  S
C4002      O4006   1.368   1_655  S
O4004      H4008   0.992       .  S
O4006      H4007   0.989       .  S
C4009      C4010   1.412       .  A
C4009      C4014   1.411       .  A
C4010      C4011   1.401       .  A
C4010      H4015   1.082       .  S
C4011      C4012   1.407       .  A
C4011      O4016   1.372       .  S
C4012      C4013   1.404       .  A
C4013      C4014   1.394       .  A
C4013      H4017   1.083       .  S
C4014      O4018   1.372       .  S
O4016      H4020   0.992       .  S
O4018      H4019   0.992       .  S
C4021      C4022   1.397       .  A
C4021      C4026   1.413       .  A
C4022      C4023   1.395       .  A
C4022      H4027   1.084       .  S
C4023      C4024   1.422       .  A
C4023      O4028   1.374       .  S
C4024      C4025   1.404       .  A
C4025      C4026   1.398       .  A
C4025      H4029   1.078       .  S
C4026      O4030   1.373       .  S
O4028      H4032   0.992   1_565  S
O4030      H4031   0.992       .  S
C4033      C4034   1.405       .  A
C4033      C4038   1.427       .  A
C4034      C4035   1.399       .  A
C4034      H4039   1.078       .  S
C4035      C4036   1.415       .  A
C4035      O4040   1.372       .  S
C4036      C4037   1.398       .  A
C4037      C4038   1.398       .  A
C4037      H4041   1.084       .  S
C4038      O4042   1.373       .  S
O4040      H4044   0.992       .  S
O4042      H4043   0.992       .  S
C4045      C4046   1.397       .  A
C4045      C4050   1.412       .  A
C4046      C4047   1.395       .  A
C4046      H4051   1.084       .  S
C4047      C4048   1.426       .  A
C4047      O4052   1.372       .  S
C4048      C4049   1.407       .  A
C4049      C4050   1.397       .  A
C4049      H4053   1.077       .  S
C4050      O4054   1.372       .  S
O4052      H4056   0.992       .  S
O4054      H4055   0.992       .  S
C4057      C4058   1.409       .  A
C4057      C4062   1.404       .  A
C4058      C4059   1.396       .  A
C4058      H4063   1.084       .  S
C4059      C4060   1.410       .  A
C4059      O4064   1.369       .  S
C4060      C4061   1.416       .  A
C4061      C4062   1.396       .  A
C4061      H4065   1.084       .  S
C4062      O4066   1.371       .  S
O4064      H4068   0.992       .  S
O4066      H4067   0.992       .  S
C4069      C4070   1.410       .  A
C4069      C4074   1.414       .  A
C4070      C4071   1.398       .  A
C4070      H4075   1.083       .  S
C4071      C4072   1.404       .  A
C4071      O4076   1.370       .  S
C4072      C4073   1.402       .  A
C4073      C4074   1.395       .  A
C4073      H4077   1.084       .  S
C4074      O4078   1.374       .  S
O4076      H4080   0.992       .  S
O4078      H4079   0.992       .  S
C4081      C4082   1.397       .  A
C4081      C4086   1.410       .  A
C4082      C4083   1.392       .  A
C4082      H4087   1.084       .  S
C4083      C4084   1.425       .  A
C4083      O4088   1.372       .  S
C4084      C4085   1.410       .  A
C4085      C4086   1.398       .  A
C4085      H4089   1.078       .  S
C4086      O4090   1.371       .  S
O4088      H4092   0.992       .  S
O4090      H4091   0.992       .  S
C4093      C4094   1.402       .  A
C4093      C4098   1.411       .  A
C4094      C4095   1.403       .  A
C4094      H4099   1.083       .  S
C4095      C4096   1.418       .  A
C4095      O4100   1.372       .  S
C4096      C4097   1.405       .  A
C4097      C4098   1.395       .  A
C4097      H4101   1.083       .  S
C4098      O4102   1.371       .  S
O4100      H4104   0.992       .  S
O4102      H4103   0.991       .  S
C4105      C4106   1.415       .  A
C4105      C4110   1.415       .  A
C4106      C4107   1.387       .  A
C4106      H4111   1.083       .  S
C4107      C4108   1.404       .  A
C4107      O4112   1.372       .  S
C4108      C4109   1.407       .  A
C4109      C4110   1.403       .  A
C4109      H4113   1.084       .  S
C4110      O4114   1.369       .  S
O4112      H4116   0.991       .  S
O4114      H4115   0.992       .  S
C4117      C4118   1.399       .  A
C4117      C4122   1.408       .  A
C4118      C4119   1.402       .  A
C4118      H4123   1.081       .  S
C4119      C4120   1.418       .  A
C4119      O4124   1.372       .  S
C4120      C4121   1.408       .  A
C4121      C4122   1.396       .  A
C4121      H4125   1.083       .  S
C4122      O4126   1.371       .  S
O4124      H4128   0.992       .  S
O4126      H4127   0.992       .  S
C4129      C4130   1.405       .  A
C4129      C4134   1.404       .  A
C4130      C4131   1.399       .  A
C4130      H4135   1.084       .  S
C4131      C4132   1.415       .  A
C4131      O4136   1.369       .  S
C4132      C4133   1.419       .  A
C4133      C4134   1.399       .  A
C4133      H4137   1.082       .  S
C4134      O4138   1.371       .  S
O4136      H4140   0.993       .  S
O4138      H4139   0.992       .  S
C4141      C4142   1.407       .  A
C4141      C4146   1.405       .  A
C4142      C4143   1.402       .  A
C4142      H4147   1.082       .  S
C4143      C4144   1.410       .  A
C4143      O4148   1.372       .  S
C4144      C4145   1.416       .  A
C4145      C4146   1.397       .  A
C4145      H4149   1.084       .  S
C4146      O4150   1.371       .  S
O4148      H4152   0.993       .  S
O4150      H4151   0.992       .  S
C4153      C4154   1.403       .  A
C4153      C4158   1.400       .  A
C4154      C4155   1.392       .  A
C4154      H4159   1.083       .  S
C4155      C4156   1.418       .  A
C4155      O4160   1.369       .  S
C4156      C4157   1.422       .  A
C4157      C4158   1.397       .  A
C4157      H4161   1.078       .  S
C4158      O4162   1.372       .  S
O4160      H4164   0.993       .  S
O4162      H4163   0.991       .  S
C4165      C4166   1.414       .  A
C4165      C4170   1.425       .  A
C4166      C4167   1.398       .  A
C4166      H4171   1.078       .  S
C4167      C4168   1.403       .  A
C4167      O4172   1.370       .  S
C4168      C4169   1.399       .  A
C4169      C4170   1.395       .  A
C4169      H4173   1.084   1_655  S
C4170      O4174   1.371       .  S
O4172      H4176   0.990       .  S
O4174      H4175   0.992       .  S
C4177      C4178   1.403       .  A
C4177      C4182   1.417       .  A
C4178      C4179   1.390       .  A
C4178      H4183   1.083       .  S
C4179      C4180   1.409       .  A
C4179      O4184   1.372       .  S
C4180      C4181   1.399       .  A
C4181      C4182   1.399       .  A
C4181      H4185   1.083       .  S
C4182      O4186   1.373       .  S
O4184      H4188   0.992       .  S
O4186      H4187   0.992       .  S
C4189      C4190   1.419       .  A
C4189      C4194   1.421       .  A
C4190      C4191   1.397       .  A
C4190      H4195   1.079       .  S
C4191      C4192   1.402       .  A
C4191      O4196   1.372   1_655  S
C4192      C4193   1.399       .  A
C4193      C4194   1.392       .  A
C4193      H4197   1.082       .  S
C4194      O4198   1.370       .  S
O4198      H4199   0.993       .  S
C4201      C4202   1.400       .  A
C4201      C4206   1.407       .  A
C4202      C4203   1.401       .  A
C4202      H4207   1.081       .  S
C4203      C4204   1.418       .  A
C4203      O4208   1.372       .  S
C4204      C4205   1.410       .  A
C4205      C4206   1.398       .  A
C4205      H4209   1.083       .  S
C4206      O4210   1.372       .  S
O4208      H4212   0.992       .  S
O4210      H4211   0.992       .  S
C4213      C4214   1.405       .  A
C4213      C4218   1.421       .  A
C4214      C4215   1.399       .  A
C4214      H4219   1.079       .  S
C4215      C4216   1.411       .  A
C4215      O4220   1.368       .  S
C4216      C4217   1.398       .  A
C4217      C4218   1.389       .  A
C4217      H4221   1.084       .  S
C4218      O4222   1.374       .  S
O4220      H4224   0.992       .  S
O4222      H4223   0.992       .  S
C4225      C4226   1.401       .  A
C4225      C4230   1.409       .  A
C4226      C4227   1.403       .  A
C4226      H4231   1.082       .  S
C4227      C4228   1.419       .  A
C4227      O4232   1.372       .  S
C4228      C4229   1.410       .  A
C4229      C4230   1.400       .  A
C4229      H4233   1.083       .  S
C4230      O4234   1.372       .  S
O4232      H4236   0.992       .  S
O4234      H4235   0.992       .  S
C4237      C4238   1.404       .  A
C4237      C4242   1.425       .  A
C4238      C4239   1.399       .  A
C4238      H4243   1.079       .  S
C4239      C4240   1.415       .  A
C4239      O4244   1.371       .  S
C4240      C4241   1.394       .  A
C4241      C4242   1.393       .  A
C4241      H4245   1.084       .  S
C4242      O4246   1.372       .  S
O4244      H4248   0.992       .  S
O4246      H4247   0.992       .  S
C4249      C4250   1.397       .  A
C4249      C4254   1.413       .  A
C4250      C4251   1.393       .  A
C4250      H4255   1.084       .  S
C4251      C4252   1.425       .  A
C4251      O4256   1.373       .  S
C4252      C4253   1.405       .  A
C4253      C4254   1.399       .  A
C4253      H4257   1.078       .  S
C4254      O4258   1.370       .  S
O4256      H4260   0.992       .  S
O4258      H4259   0.992       .  S
C4261      C4262   1.421       .  A
C4261      C4266   1.416       .  A
C4262      C4263   1.396       .  A
C4262      H4267   1.081       .  S
C4263      C4264   1.400       .  A
C4263      O4268   1.372       .  S
C4264      C4265   1.404       .  A
C4265      C4266   1.393       .  A
C4265      H4269   1.084       .  S
C4266      O4270   1.369       .  S
O4268      H4272   0.990       .  S
O4270      H4271   0.993       .  S
C4273      C4274   1.407       .  A
C4273      C4278   1.423       .  A
C4274      C4275   1.398       .  A
C4274      H4279   1.077       .  S
C4275      C4276   1.413       .  A
C4275      O4280   1.372       .  S
C4276      C4277   1.398       .  A
C4277      C4278   1.396       .  A
C4277      H4281   1.084       .  S
C4278      O4282   1.372       .  S
O4280      H4284   0.992       .  S
O4282      H4283   0.992       .  S
C4285      C4286   1.404       .  A
C4285      C4290   1.405       .  A
C4286      C4287   1.396       .  A
C4286      H4291   1.083       .  S
C4287      C4288   1.411       .  A
C4287      O4292   1.372       .  S
C4288      C4289   1.412       .  A
C4289      C4290   1.403       .  A
C4289      H4293   1.083       .  S
C4290      O4294   1.370       .  S
O4292      H4296   0.990       .  S
O4294      H4295   0.992       .  S
C4297      C4298   1.403       .  A
C4297      C4302   1.425       .  A
C4298      C4299   1.398       .  A
C4298      H4303   1.078       .  S
C4299      C4300   1.415       .  A
C4299      O4304   1.371       .  S
C4300      C4301   1.398       .  A
C4301      C4302   1.396       .  A
C4301      H4305   1.084   1_565  S
C4302      O4306   1.374       .  S
O4304      H4308   0.992       .  S
O4306      H4307   0.992       .  S
C4309      C4310   1.406       .  A
C4309      C4314   1.418       .  A
C4310      C4311   1.399       .  A
C4310      H4315   1.083       .  S
C4311      C4312   1.409       .  A
C4311      O4316   1.377       .  S
C4312      C4313   1.400       .  A
C4313      C4314   1.402       .  A
C4313      H4317   1.083       .  S
C4314      O4318   1.372       .  S
O4316      H4320   0.991       .  S
O4318      H4319   0.992       .  S
C4321      C4322   1.404       .  A
C4321      C4326   1.427       .  A
C4322      C4323   1.398       .  A
C4322      H4327   1.078       .  S
C4323      C4324   1.414       .  A
C4323      O4328   1.372   1_565  S
C4324      C4325   1.397       .  A
C4325      C4326   1.395       .  A
C4325      H4329   1.084       .  S
C4326      O4330   1.371       .  S
O4328      H4332   0.992       .  S
O4330      H4331   0.992       .  S
C4333      C4334   1.399       .  A
C4333      C4338   1.408       .  A
C4334      C4335   1.399       .  A
C4334      H4339   1.081       .  S
C4335      C4336   1.417       .  A
C4335      O4340   1.373       .  S
C4336      C4337   1.407       .  A
C4337      C4338   1.394       .  A
C4337      H4341   1.083       .  S
C4338      O4342   1.371       .  S
O4340      H4344   0.992       .  S
O4342      H4343   0.992       .  S
