geometry optimzed in LAMMPS
_audit_creation_date              2020-11-30 
_audit_creation_method            'lammps2cif' 
_symmetry_space_group_name_H-M    'P1' 
_symmetry_Int_Tables_number       1 
_symmetry_cell_setting            triclinic 
loop_ 
_symmetry_equiv_pos_as_xyz 
  x,y,z 
_cell_length_a                    37.9600634 
_cell_length_b                    37.95858044932195 
_cell_length_c                    37.95870950107551 
_cell_angle_alpha                 89.98849516743404 
_cell_angle_beta                  90.01455889081114 
_cell_angle_gamma                 89.9883155105635 
loop_ 
_atom_site_label 
_atom_site_type_symbol 
_atom_site_fract_x 
_atom_site_fract_y 
_atom_site_fract_z 
_atom_site_charge 
C1          C  0.81837094  0.82143985  0.62256091     0.84400
N2          N  0.80575052  0.85228033  0.60932448    -0.73900
C3          C  0.82335463  0.86894660  0.58296627     0.86800
N4          N  0.85328430  0.85476032  0.56981200    -0.73900
C5          C  0.86600214  0.82414058  0.58290659     0.86900
N6          N  0.84853704  0.80733354  0.60927443    -0.75600
C7          C  0.81649563  0.64521395  0.79999628     0.84400
N8          N  0.80265165  0.63184393  0.83024017    -0.73900
C9          C  0.81959116  0.60541821  0.84749178     0.86800
N10         N  0.85008592  0.59234599  0.83448582    -0.73900
C11         C  0.86401924  0.60556933  0.80446837     0.86900
N12         N  0.84721746  0.63199834  0.78706782    -0.75600
C13         C  0.64016856  0.82256466  0.79947165     0.84400
N14         N  0.62704596  0.80941140  0.83014414    -0.73900
C15         C  0.60065170  0.82668387  0.84712556     0.86800
N16         N  0.58737511  0.85679754  0.83341987    -0.73900
C17         C  0.60037261  0.87001984  0.80298273     0.86900
N18         N  0.62674979  0.85289676  0.78587460    -0.75600
C19         C  0.72256141  0.77326482  0.75013576     0.07300
C20         C  0.73782570  0.78817196  0.71991336    -0.08900
C21         C  0.76806333  0.77303796  0.70490803     0.04800
C22         C  0.78288051  0.74275579  0.72011960    -0.07400
C23         C  0.76774911  0.72773894  0.75032717     0.07300
C24         C  0.73752534  0.74298187  0.76519737    -0.06800
H25         H  0.72663222  0.81187061  0.70853108     0.12900
H26         H  0.80652649  0.73132935  0.70890370     0.10400
H27         H  0.72610702  0.73173312  0.78882910     0.10200
C28         C  0.14825084  0.60449952  0.17257568     0.84400
N29         N  0.16203334  0.59144213  0.14240978    -0.73900
C30         C  0.19272411  0.60425401  0.12959315     0.86800
N31         N  0.20999354  0.63022428  0.14717561    -0.73900
C32         C  0.19630620  0.64340364  0.17756252     0.86900
N33         N  0.16539308  0.63047407  0.19029683    -0.75600
C34         C  0.29087113  0.77060474  0.22803900     0.07300
C35         C  0.27563676  0.78547006  0.25827107    -0.08900
C36         C  0.24540304  0.77035922  0.27325460     0.04800
C37         C  0.23054855  0.74011841  0.25802775    -0.07400
C38         C  0.24565954  0.72513250  0.22779647     0.07300
C39         C  0.27589255  0.74036411  0.21293309    -0.06800
H40         H  0.28681747  0.80916293  0.26964546     0.12900
H41         H  0.20686311  0.72873973  0.26921219     0.10400
H42         H  0.28726900  0.72917806  0.18925220     0.10200
C43         C  0.19315225  0.19875364  0.62268178     0.84400
N44         N  0.16283657  0.21234540  0.60922162    -0.73900
C45         C  0.14576506  0.19524424  0.58280396     0.86800
N46         N  0.15902275  0.16482148  0.56980758    -0.73900
C47         C  0.18912085  0.15112255  0.58312462     0.86900
N48         N  0.20634164  0.16809660  0.60955879    -0.75600
C49         C  0.28800621  0.24770586  0.75029141     0.07300
C50         C  0.27303870  0.27791613  0.76547055    -0.08900
C51         C  0.24275865  0.29317574  0.75069729     0.04800
C52         C  0.22757682  0.27821441  0.72045987    -0.07400
C53         C  0.24243349  0.24799078  0.70515013     0.07300
C54         C  0.27271346  0.23288080  0.72006902    -0.06800
H55         H  0.28450637  0.28910139  0.78911205     0.12900
H56         H  0.20388309  0.28963775  0.70929596     0.10400
H57         H  0.28392760  0.20925055  0.70861020     0.10200
C58         C  0.64031774  0.19750638  0.17675447     0.84400
N59         N  0.62699181  0.16735483  0.19085721    -0.73900
C60         C  0.60057993  0.14994221  0.17406306     0.86800
N61         N  0.58748143  0.16269723  0.14346063    -0.73900
C62         C  0.60067407  0.19261262  0.12927810     0.86900
N63         N  0.62707675  0.21016471  0.14593086    -0.75600
C64         C  0.76799983  0.29322734  0.22478172     0.07300
C65         C  0.78308908  0.27827843  0.25505970    -0.08900
C66         C  0.76823009  0.24806272  0.27033348     0.04800
C67         C  0.73800902  0.23292191  0.25535038    -0.07400
C68         C  0.72277142  0.24772462  0.22507377     0.07300
C69         C  0.73776473  0.27795359  0.20991076    -0.06800
H70         H  0.80672890  0.28970749  0.26628560     0.12900
H71         H  0.72679922  0.20928780  0.26680167     0.10400
H72         H  0.72635640  0.28913945  0.18621707     0.10200
O73         O  0.47173492  0.30573258  0.01418202    -0.53700
C74         C  0.56077972  0.28531865  0.94495162     0.79000
O75         O  0.53136339  0.20830638  0.02287480    -0.54800
C76         C  0.45127196  0.28545286  0.03118533     0.78900
C77         C  0.46233322  0.22948559  0.93283241     0.81300
Cd78       Cd  0.50582757  0.25698229  0.98785263     1.37500
O79         O  0.54037723  0.30564656  0.96197160    -0.53700
O80         O  0.46470303  0.26212630  0.93892838    -0.52500
C81         C  0.54899870  0.22870524  0.04269254     0.81300
O82         O  0.47980455  0.20880044  0.95251316    -0.54800
O83         O  0.55535078  0.25255430  0.94735705    -0.53300
O84         O  0.45643804  0.25266459  0.02853638    -0.53300
O85         O  0.54697975  0.26140196  0.03676221    -0.52500
O86         O  0.21012389  0.48413410  0.95439829    -0.53700
C87         C  0.23073820  0.55343435  0.04333219     0.79000
O88         O  0.30773258  0.47560485  0.01384286    -0.54800
C89         C  0.23033421  0.46716004  0.93384237     0.78900
C90         C  0.28628604  0.56550219  0.94462736     0.81300
Cd91       Cd  0.25898553  0.51056030  0.98827523     1.37500
O92         O  0.21040473  0.53649190  0.02287368    -0.53700
O93         O  0.25364806  0.55949311  0.94722068    -0.52500
C94         C  0.28732715  0.45569376  0.03136775     0.81300
O95         O  0.30705065  0.54576797  0.96194235    -0.54800
O96         O  0.26350328  0.55099561  0.03791318    -0.53300
O97         O  0.26314144  0.46990448  0.93883332    -0.53300
O98         O  0.25462558  0.46154887  0.02925889    -0.52500
C99         C  0.32314194  0.36890253  0.08288015     0.84400
N100        N  0.30545046  0.35214082  0.10912503    -0.73900
C101        C  0.31798959  0.32120524  0.12222817     0.86800
N102        N  0.34815195  0.30711226  0.10893458    -0.73900
C103        C  0.36569817  0.32401532  0.08269085     0.86900
N104        N  0.35307044  0.35472245  0.06972206    -0.75600
O105        O  0.47948042  0.97554730  0.19280851    -0.53700
C106        C  0.54875774  0.06461486  0.21281410     0.79000
O107        O  0.47008833  0.03649809  0.28945117    -0.54800
C108        C  0.46249746  0.95511044  0.21312882     0.78900
C109        C  0.56014494  0.96702465  0.26976195     0.81300
Cd110      Cd  0.50533484  0.01017213  0.24141121     1.37500
O111        O  0.53178154  0.04407656  0.19258593    -0.53700
O112        O  0.55432016  0.96916874  0.23705618    -0.52500
C113        C  0.45033421  0.05376754  0.26866691     0.81300
O114        O  0.54023673  0.98455269  0.29016820    -0.54800
O115        O  0.54600365  0.05960621  0.24561907    -0.53300
O116        O  0.46487852  0.96055596  0.24589528    -0.53300
O117        O  0.45636036  0.05116542  0.23603154    -0.52500
O118        O  0.30268232  0.98419844  0.52173627    -0.53700
C119        C  0.28144729  0.05353469  0.43299435     0.79000
O120        O  0.20526046  0.97467527  0.46220820    -0.54800
C121        C  0.28255741  0.96715981  0.54232415     0.78900
C122        C  0.22570043  0.06484873  0.53129786     0.81300
Cd123      Cd  0.25361235  0.01011474  0.48775320     1.37500
O124        O  0.30194539  0.03655499  0.45327093    -0.53700
O125        O  0.25839195  0.05905149  0.52886154    -0.52500
C126        C  0.22582530  0.95486078  0.44476625     0.81300
O127        O  0.20516060  0.04495798  0.51390724    -0.54800
O128        O  0.24870742  0.05077758  0.43839364    -0.53300
O129        O  0.24973770  0.96966085  0.53729258    -0.53300
O130        O  0.25847707  0.96100990  0.44682783    -0.52500
C131        C  0.31605251  0.14502491  0.29975304     0.84400
N132        N  0.34683447  0.13191719  0.28686983    -0.73900
C133        C  0.36372462  0.10558484  0.30432175     0.86800
N134        N  0.34982701  0.09235132  0.33434851    -0.73900
C135        C  0.31927258  0.10532745  0.34730485     0.86900
N136        N  0.30224167  0.13165560  0.33000565    -0.75600
O137        O  0.03165289  0.47653580  0.28501204    -0.53700
C138        C  0.96232049  0.56530132  0.26385375     0.79000
O139        O  0.04126568  0.53623896  0.18771140    -0.54800
C140        C  0.04870690  0.45597933  0.26486749     0.78900
C141        C  0.95109707  0.46708559  0.20794487     0.81300
Cd142      Cd  0.00578646  0.51060078  0.23597710     1.37500
O143        O  0.97930576  0.54501437  0.28433705    -0.53700
O144        O  0.95685794  0.46948487  0.24064716    -0.52500
C145        C  0.06107712  0.55362145  0.20833148     0.81300
O146        O  0.97100412  0.48450502  0.18744667    -0.54800
O147        O  0.96509535  0.55994051  0.23110765    -0.53300
O148        O  0.04623293  0.46106144  0.23205233    -0.53300
O149        O  0.05490440  0.55149250  0.24097513    -0.52500
O150        O  0.03964259  0.21347748  0.51399757    -0.53700
C151        C  0.95082063  0.23431162  0.44474084     0.79000
O152        O  0.97994770  0.31080234  0.52357176    -0.54800
C153        C  0.06010803  0.23359023  0.53119222     0.78900
C154        C  0.04907000  0.29033421  0.43331412     0.81300
Cd155      Cd  0.00554859  0.26246135  0.48811796     1.37500
O156        O  0.97118175  0.21392537  0.46175476    -0.53700
O157        O  0.04672631  0.25766227  0.43924688    -0.52500
C158        C  0.96245354  0.29019913  0.54330543     0.81300
O159        O  0.03161599  0.31090386  0.45311832    -0.54800
O160        O  0.95609824  0.26707654  0.44746640    -0.53300
O161        O  0.05495504  0.26640567  0.52883799    -0.53300
O162        O  0.96451293  0.25756003  0.53709147    -0.52500
C163        C  0.10064656  0.32670655  0.34682280     0.84400
N164        N  0.12689819  0.30939008  0.32967433    -0.73900
C165        C  0.13992338  0.32257648  0.29897713     0.86800
N166        N  0.12654710  0.35299395  0.28551661    -0.73900
C167        C  0.10030432  0.37015603  0.30280154     0.86900
N168        N  0.08741183  0.35689641  0.33326123    -0.75600
C169        C  0.26773458  0.27270341  0.20451829     0.07300
C170        C  0.23749983  0.28788625  0.21945874    -0.08900
C171        C  0.22220538  0.27307075  0.24969989     0.04800
C172        C  0.23713563  0.24281754  0.26485512    -0.07400
C173        C  0.26735294  0.22751116  0.25003533     0.07300
C174        C  0.28252814  0.24245033  0.21980997    -0.06800
H175        H  0.22632749  0.31156139  0.20800634     0.12900
H176        H  0.22568642  0.23163280  0.28850433     0.10400
H177        H  0.30617143  0.23098119  0.20863596     0.10200
C178        C  0.19000528  0.86772519  0.39384948     0.84400
N179        N  0.15984779  0.85390552  0.40688582    -0.73900
C180        C  0.14707316  0.82319939  0.39406215     0.86800
N181        N  0.16469160  0.80595157  0.36810213    -0.73900
C182        C  0.19506990  0.81967774  0.35494324     0.86900
N183        N  0.20776081  0.85060456  0.36788606    -0.75600
C184        C  0.81784695  0.19934114  0.35290781     0.84400
N185        N  0.80488167  0.16863208  0.36612113    -0.73900
C186        C  0.82224570  0.15182344  0.39257030     0.86800
N187        N  0.85226259  0.16573707  0.40581564    -0.73900
C188        C  0.86530436  0.19621827  0.39274599     0.86900
N189        N  0.84809032  0.21316498  0.36630044    -0.75600
C190        C  0.41171237  0.86883800  0.17509124     0.84400
N191        N  0.42452425  0.85602668  0.14439719    -0.73900
C192        C  0.41147622  0.82585634  0.13061312     0.86800
N193        N  0.38551130  0.80812552  0.14775787    -0.73900
C194        C  0.37258119  0.82085496  0.17867415     0.86900
N195        N  0.38575190  0.85124609  0.19236267    -0.75600
C196        C  0.19440106  0.37559889  0.80093039     0.84400
N197        N  0.16358525  0.38881891  0.78823330    -0.73900
C198        C  0.14689439  0.41521098  0.80576396     0.86800
N199        N  0.16103159  0.42841489  0.83569681    -0.73900
C200        C  0.19162585  0.41533726  0.84849060     0.86900
N201        N  0.20845804  0.38893586  0.83109940    -0.75600
C202        C  0.37060314  0.19801935  0.79890041     0.84400
N203        N  0.38381558  0.21095060  0.82962417    -0.73900
C204        C  0.41027680  0.19358078  0.84640505     0.86800
N205        N  0.42353658  0.16358995  0.83244855    -0.73900
C206        C  0.41046904  0.15058070  0.80195084     0.86900
N207        N  0.38401017  0.16780214  0.78503141    -0.75600
C208        C  0.81724050  0.37566026  0.17544460     0.84400
N209        N  0.84790719  0.38880114  0.18859257    -0.73900
C210        C  0.86485802  0.41522269  0.17133184     0.86800
N211        N  0.85112586  0.42851127  0.14123524    -0.73900
C212        C  0.82069253  0.41549774  0.12801784     0.86900
N213        N  0.80361457  0.38909214  0.14513021    -0.75600
C214        C  0.68991982  0.36774732  0.89380206     0.84400
N215        N  0.70764116  0.35065689  0.86779069    -0.73900
C216        C  0.69492700  0.31974488  0.85482255     0.86800
N217        N  0.66455562  0.30601468  0.86800309    -0.73900
C218        C  0.64697980  0.32324060  0.89401022     0.86900
N219        N  0.65978057  0.35391978  0.90685448    -0.75600
O220        O  0.80186706  0.53645702  0.95338423    -0.53700
C221        C  0.78226233  0.46705878  0.04236206     0.79000
O222        O  0.70493713  0.54510583  0.01394118    -0.54800
C223        C  0.78147496  0.55347541  0.93303311     0.78900
C224        C  0.72555741  0.45491940  0.94477054     0.81300
Cd225      Cd  0.75335288  0.51012342  0.98780623     1.37500
O226        O  0.80235847  0.48425843  0.02188632    -0.53700
O227        O  0.75820201  0.46109517  0.94683682    -0.52500
C228        C  0.72552476  0.56491656  0.03136808     0.81300
O229        O  0.70497147  0.47470271  0.96222873    -0.54800
O230        O  0.74944537  0.46940037  0.03721949    -0.53300
O231        O  0.74871443  0.55076739  0.93833833    -0.53300
O232        O  0.75819453  0.55900261  0.02896898    -0.52500
C233        C  0.91145088  0.32589293  0.63042949     0.84400
N234        N  0.88543949  0.30820868  0.64755922    -0.73900
C235        C  0.87249022  0.32098156  0.67845497     0.86800
N236        N  0.88568965  0.35137107  0.69212862    -0.73900
C237        C  0.91169451  0.36890965  0.67486410     0.86900
N238        N  0.92452093  0.35605209  0.64420230    -0.75600
O239        O  0.03193910  0.54412957  0.69253172    -0.53700
C240        C  0.96266386  0.45509959  0.71279013     0.79000
O241        O  0.04048167  0.48446724  0.78994551    -0.54800
C242        C  0.04891759  0.56458722  0.71283915     0.78900
C243        C  0.95047726  0.55351642  0.76864667     0.81300
Cd244      Cd  0.00553461  0.51002791  0.74122689     1.37500
O245        O  0.97970715  0.47551921  0.69249924    -0.53700
O246        O  0.95663255  0.55116495  0.73601656    -0.52500
C247        C  0.06033417  0.46684876  0.76956774     0.81300
O248        O  0.97011700  0.53603081  0.78935895    -0.54800
O249        O  0.96503847  0.46049730  0.74556189    -0.53300
O250        O  0.04621956  0.55941819  0.74562303    -0.53300
O251        O  0.05445266  0.46888386  0.73686304    -0.52500
C252        C  0.10047231  0.65012400  0.67426083     0.84400
N253        N  0.08746877  0.66274489  0.64356566    -0.73900
C254        C  0.10063306  0.69265335  0.62934738     0.86800
N255        N  0.12691973  0.71033234  0.64605813    -0.73900
C256        C  0.14005871  0.69779930  0.67698103     0.86900
N257        N  0.12675851  0.66765684  0.69111313    -0.75600
C258        C  0.87075452  0.69843769  0.29870902     0.84400
N259        N  0.88412084  0.66821028  0.28483826    -0.73900
C260        C  0.91048981  0.65090962  0.30180383     0.86800
N261        N  0.92351062  0.66384026  0.33235165    -0.73900
C262        C  0.91028075  0.69384083  0.34630896     0.86900
N263        N  0.88390746  0.71129495  0.32948493    -0.75600
O264        O  0.97191412  0.80560570  0.51419885    -0.53700
C265        C  0.06087194  0.78507700  0.44490023     0.79000
O266        O  0.03149674  0.70803823  0.52270454    -0.54800
C267        C  0.95139133  0.78538038  0.53119474     0.78900
C268        C  0.96222621  0.72947869  0.43285151     0.81300
Cd269      Cd  0.00585650  0.75677958  0.48779827     1.37500
O270        O  0.04044406  0.80538979  0.46190236    -0.53700
O271        O  0.96482016  0.76211704  0.43886407    -0.52500
C272        C  0.04900753  0.72845290  0.54262065     0.81300
O273        O  0.97952968  0.70870863  0.45259086    -0.54800
O274        O  0.05544425  0.75230846  0.44729416    -0.53300
O275        O  0.95643522  0.75257682  0.52848607    -0.53300
O276        O  0.04685113  0.76115794  0.53679502    -0.52500
C277        C  0.69172239  0.91550678  0.34815122     0.84400
N278        N  0.70857567  0.88921731  0.33062615    -0.73900
C279        C  0.69445756  0.87592030  0.30047517     0.86800
N280        N  0.66354583  0.88906818  0.28792368    -0.73900
C281        C  0.64683361  0.91535974  0.30559506     0.86900
N282        N  0.66103962  0.92851979  0.33551251    -0.75600
O283        O  0.71029482  0.03624662  0.52277393    -0.53700
C284        C  0.73039691  0.96704308  0.43366289     0.79000
O285        O  0.80708032  0.04570702  0.46206657    -0.54800
C286        C  0.73062663  0.05329168  0.54315229     0.78900
C287        C  0.78727448  0.95555305  0.53131775     0.81300
Cd288      Cd  0.75893612  0.01038711  0.48818139     1.37500
O289        O  0.71014625  0.98405421  0.45414731    -0.53700
O290        O  0.75457273  0.96144562  0.52929337    -0.52500
C291        C  0.78636720  0.06540251  0.44464495     0.81300
O292        O  0.80765361  0.97540912  0.51370505    -0.54800
O293        O  0.76319083  0.96969335  0.43878651    -0.53300
O294        O  0.76338680  0.05090497  0.53769778    -0.53300
O295        O  0.75373040  0.05932169  0.44708221    -0.52500
C296        C  0.64577915  0.69540503  0.08276981     0.84400
N297        N  0.65903060  0.66496103  0.06983115    -0.72300
C298        C  0.68919953  0.65135587  0.08306768     0.86800
N299        N  0.70650415  0.66844432  0.10936889    -0.73900
C300        C  0.69332549  0.69912563  0.12244107     0.86900
N301        N  0.66292875  0.71262964  0.10906233    -0.75600
C302        C  0.32203983  0.65199342  0.89267546     0.84400
N303        N  0.35205810  0.66589429  0.90592615    -0.73900
C304        C  0.36504720  0.69642447  0.89292333     0.86800
N305        N  0.34778855  0.71342901  0.86655184    -0.73900
C306        C  0.31754558  0.69961521  0.85316336     0.86900
N307        N  0.30462794  0.66885756  0.86629886    -0.75600
O308        O  0.53943851  0.71325032  0.01410302    -0.53700
C309        C  0.45064941  0.73434331  0.94479752     0.79000
O310        O  0.47973996  0.81060915  0.02361637    -0.54800
C311        C  0.55998515  0.73339979  0.03116422     0.78900
C312        C  0.54886846  0.79018408  0.93345804     0.81300
Cd313      Cd  0.50536645  0.76226885  0.98821721     1.37500
O314        O  0.47091136  0.71387995  0.96183591    -0.53700
O315        O  0.54645087  0.75749325  0.93927271    -0.52500
C316        C  0.46236192  0.79002637  0.04346910     0.81300
O317        O  0.53148263  0.81072701  0.95334908    -0.54800
O318        O  0.45603501  0.76709089  0.94750801    -0.53300
O319        O  0.55489422  0.76621387  0.02868948    -0.53300
O320        O  0.46449072  0.75737108  0.03735544    -0.52500
C321        C  0.69272130  0.10426164  0.62934754     0.84400
N322        N  0.66205339  0.09141528  0.64216948    -0.73900
C323        C  0.64824625  0.10446846  0.67231917     0.86800
N324        N  0.66534594  0.13048347  0.69002870    -0.73900
C325        C  0.69624584  0.14345392  0.67729187     0.86900
N326        N  0.70995594  0.13027137  0.64691205    -0.75600
C327        C  0.36462218  0.91522970  0.67152637     0.84400
N328        N  0.34752466  0.88893421  0.68882830    -0.73900
C329        C  0.31683897  0.87587434  0.67564785     0.86800
N330        N  0.30334073  0.88925884  0.64524988    -0.73900
C331        C  0.32057523  0.91554558  0.62810261     0.86900
N332        N  0.35102250  0.92847274  0.64135730    -0.75600
O333        O  0.47953840  0.04476993  0.78422357    -0.53700
C334        C  0.54891771  0.95576779  0.76462018     0.79000
O335        O  0.47091473  0.98429173  0.68728105    -0.54800
C336        C  0.46251727  0.06511038  0.76382229     0.78900
C337        C  0.56112318  0.05343732  0.70797866     0.81300
Cd338      Cd  0.50591346  0.01037026  0.73571907     1.37500
O339        O  0.53174494  0.97626062  0.78472266    -0.53700
O340        O  0.55490629  0.05138795  0.74061770    -0.52500
C341        C  0.45110643  0.96685069  0.70785789     0.81300
O342        O  0.54138726  0.03594123  0.68737775    -0.54800
O343        O  0.54658690  0.96092325  0.73180342    -0.53300
O344        O  0.46525062  0.05981362  0.73106117    -0.53300
O345        O  0.45703653  0.96920967  0.74052911    -0.52500
C346        C  0.26762287  0.79351241  0.72509486     0.07300
C347        C  0.23738100  0.77823728  0.71025731    -0.08900
C348        C  0.22242291  0.74799860  0.72541797     0.04800
C349        C  0.23769732  0.73318013  0.75566670    -0.07400
C350        C  0.26792250  0.74833404  0.77062759     0.07300
C351        C  0.28275969  0.77855694  0.75534554    -0.06800
H352        H  0.22593989  0.78942980  0.68659028     0.12900
H353        H  0.22650574  0.70953516  0.76712028     0.10400
H354        H  0.30640920  0.78999507  0.76655160     0.10200
C355        C  0.74272741  0.74836511  0.20481674     0.07300
C356        C  0.72785861  0.77860005  0.22007228    -0.08900
C357        C  0.74298236  0.79357733  0.25032033     0.04800
C358        C  0.77323106  0.77832770  0.26516676    -0.07400
C359        C  0.78822374  0.74810812  0.25003106     0.07300
C360        C  0.77297533  0.73325215  0.21979921    -0.06800
H361        H  0.70418970  0.79002175  0.20885637     0.12900
H362        H  0.78465872  0.78953345  0.28882028     0.10400
H363        H  0.78420252  0.70961082  0.20837758     0.10200
C364        C  0.74520099  0.27050654  0.77300709     0.07300
C365        C  0.73036737  0.24025845  0.75776240    -0.08900
C366        C  0.74549655  0.22528352  0.72752864     0.04800
C367        C  0.77572992  0.24053914  0.71268329    -0.07400
C368        C  0.79069126  0.27078781  0.72779747     0.07300
C369        C  0.77543532  0.28563655  0.75803248    -0.06800
H370        H  0.70669001  0.22886148  0.76893832     0.12900
H371        H  0.78712614  0.22935931  0.68900390     0.10400
H372        H  0.78660344  0.30932642  0.76941938     0.10200
C373        C  0.39652153  0.93022583  0.68521431    -0.09100
C374        C  0.42232068  0.94590832  0.69510121    -0.10700
C375        C  0.28417622  0.82344099  0.70828948    -0.09100
C376        C  0.29881732  0.84768270  0.69366297    -0.10700
C377        C  0.59014140  0.07409516  0.69529623    -0.09100
C378        C  0.61612514  0.08957596  0.68558556    -0.10700
C379        C  0.71424158  0.17137959  0.69572951    -0.09100
C380        C  0.72887606  0.19545800  0.71062102    -0.10700
C381        C  0.39648533  0.71080117  0.90817823    -0.09100
C382        C  0.42201480  0.72127738  0.92388736    -0.10700
C383        C  0.29941189  0.71738135  0.82489520    -0.09100
C384        C  0.28471458  0.73185372  0.80059705    -0.10700
C385        C  0.61420137  0.70949675  0.06750438    -0.09100
C386        C  0.58861292  0.71996184  0.05186620    -0.10700
C387        C  0.72595422  0.73179056  0.17488177    -0.09100
C388        C  0.71134167  0.71714091  0.15063639    -0.10700
C389        C  0.71742997  0.07383583  0.57200234    -0.09100
C390        C  0.70697648  0.08925529  0.59772258    -0.10700
C391        C  0.71705858  0.94624718  0.40505406    -0.09100
C392        C  0.70638427  0.93064361  0.37953248    -0.10700
C393        C  0.72646258  0.82349962  0.26716982    -0.09100
C394        C  0.71206775  0.84773479  0.28204919    -0.10700
C395        C  0.92539239  0.70723555  0.37826377    -0.09100
C396        C  0.94116833  0.71695082  0.40406387    -0.10700
C397        C  0.84248737  0.71661505  0.28098631    -0.09100
C398        C  0.81819073  0.73133157  0.26653142    -0.10700
C399        C  0.06983100  0.71550952  0.57140779    -0.09100
C400        C  0.08551407  0.70576699  0.59726428    -0.10700
C401        C  0.19249053  0.73112869  0.70893963    -0.09100
C402        C  0.16824748  0.71623170  0.69457746    -0.10700
C403        C  0.06972899  0.59321521  0.69957056    -0.09100
C404        C  0.08533772  0.61874455  0.68892552    -0.10700
C405        C  0.94213402  0.42626366  0.69954090    -0.09100
C406        C  0.92671567  0.40054369  0.68908453    -0.10700
C407        C  0.84457132  0.30257171  0.69648837    -0.09100
C408        C  0.82050243  0.28769921  0.71115632    -0.10700
C409        C  0.71277868  0.59368472  0.05234130    -0.09100
C410        C  0.70289118  0.61946844  0.06804916    -0.10700
C411        C  0.70315579  0.39988872  0.90868006    -0.09100
C412        C  0.71285577  0.42589022  0.92413940    -0.10700
C413        C  0.71337763  0.30176099  0.82689766    -0.09100
C414        C  0.72828187  0.28713356  0.80282296    -0.10700
C415        C  0.80643008  0.43078621  0.09652081    -0.09100
C416        C  0.79578334  0.44637874  0.07097525    -0.10700
C417        C  0.44157417  0.09371095  0.77696837    -0.09100
C418        C  0.42579288  0.11918910  0.78749629    -0.10700
C419        C  0.11491422  0.43037739  0.79246153    -0.09100
C420        C  0.08910814  0.44604588  0.78256863    -0.10700
C421        C  0.42633273  0.81255812  0.09848666    -0.09100
C422        C  0.44175471  0.80276333  0.07249934    -0.10700
C423        C  0.79895254  0.09419130  0.42359786    -0.09100
C424        C  0.80873141  0.11994433  0.40776821    -0.10700
C425        C  0.08974487  0.79832325  0.42440999    -0.09100
C426        C  0.11546127  0.80888332  0.40905163    -0.10700
C427        C  0.16807439  0.30454915  0.28090775    -0.09100
C428        C  0.19229266  0.28990621  0.26624702    -0.10700
C429        C  0.92631921  0.31259643  0.59830860    -0.09100
C430        C  0.94179165  0.30287893  0.57232200    -0.10700
C431        C  0.07000663  0.30310084  0.40452868    -0.09100
C432        C  0.08567555  0.31300339  0.37872751    -0.10700
C433        C  0.92221479  0.22114769  0.42381743    -0.09100
C434        C  0.89672168  0.21063068  0.40805390    -0.10700
C435        C  0.92571165  0.61947659  0.28738166    -0.09100
C436        C  0.94140586  0.59394099  0.27689921    -0.10700
C437        C  0.06940116  0.42734931  0.27830889    -0.09100
C438        C  0.08503712  0.40175178  0.28875346    -0.10700
C439        C  0.89669048  0.43034674  0.18504839    -0.09100
C440        C  0.92240246  0.44610125  0.19505154    -0.10700
C441        C  0.28381171  0.19754661  0.26685593    -0.09100
C442        C  0.29827366  0.17326183  0.28158453    -0.10700
C443        C  0.29602562  0.94645536  0.57093566    -0.09100
C444        C  0.30649305  0.93081470  0.59652187    -0.10700
C445        C  0.29446754  0.07442463  0.40432519    -0.09100
C446        C  0.30491323  0.09010512  0.37876620    -0.10700
C447        C  0.20327767  0.89985317  0.40872774    -0.09100
C448        C  0.21307414  0.92583524  0.42415928    -0.10700
C449        C  0.58892063  0.94619139  0.28271415    -0.09100
C450        C  0.61476498  0.93049331  0.29246345    -0.10700
C451        C  0.39569306  0.09052546  0.29090261    -0.09100
C452        C  0.42151478  0.07479132  0.28117912    -0.10700
C453        C  0.42670017  0.90047063  0.18936226    -0.09100
C454        C  0.44204043  0.92620904  0.19989537    -0.10700
C455        C  0.28463375  0.28917581  0.17459924    -0.09100
C456        C  0.29954617  0.30355943  0.15037871    -0.10700
C457        C  0.29882374  0.59427801  0.92355721    -0.09100
C458        C  0.30857750  0.62006169  0.90777755    -0.10700
C459        C  0.30027540  0.42687914  0.05215192    -0.09100
C460        C  0.31002248  0.40100238  0.06779967    -0.10700
C461        C  0.20625388  0.43057351  0.87985127    -0.09100
C462        C  0.21693711  0.44627892  0.90531309    -0.10700
C463        C  0.61535561  0.30897503  0.90900571    -0.09100
C464        C  0.58963095  0.29852237  0.92441622    -0.10700
C465        C  0.42263900  0.29875124  0.05196972    -0.09100
C466        C  0.39709766  0.30938875  0.06756258    -0.10700
C467        C  0.44130311  0.21686670  0.90404444    -0.09100
C468        C  0.42547912  0.20707464  0.87829197    -0.10700
C469        C  0.78461426  0.32314430  0.20800357    -0.09100
C470        C  0.79930213  0.34739827  0.19343881    -0.10700
C471        C  0.78501775  0.23155950  0.30030293    -0.09100
C472        C  0.79972235  0.21708293  0.32460201    -0.10700
C473        C  0.58535611  0.11859765  0.18873650    -0.09100
C474        C  0.56965043  0.09314327  0.19943497    -0.10700
C475        C  0.56980582  0.21573697  0.07147894    -0.09100
C476        C  0.58548613  0.20587429  0.09729025    -0.10700
C477        C  0.66858233  0.21588378  0.19430219    -0.09100
C478        C  0.69284363  0.23082720  0.20859571    -0.10700
C479        C  0.34228683  0.21615883  0.78119169    -0.09100
C480        C  0.31798115  0.23089104  0.76675531    -0.10700
C481        C  0.22629331  0.32309282  0.76762691    -0.09100
C482        C  0.21198733  0.34734503  0.78257319    -0.10700
C483        C  0.11426568  0.20946845  0.56749042    -0.09100
C484        C  0.08872036  0.22008962  0.55188297    -0.10700
C485        C  0.20286777  0.11928932  0.56802869    -0.09100
C486        C  0.21286082  0.09356554  0.55228614    -0.10700
C487        C  0.21110177  0.21671456  0.65095779    -0.09100
C488        C  0.22564586  0.23140488  0.67522291    -0.10700
C489        C  0.34471132  0.80239871  0.19671242    -0.09100
C490        C  0.32066714  0.78750484  0.21138467    -0.10700
C491        C  0.21356265  0.80166385  0.32708113    -0.09100
C492        C  0.22848923  0.78701154  0.30304450    -0.10700
C493        C  0.11612223  0.58965065  0.18587238    -0.09100
C494        C  0.09012608  0.57423210  0.19564620    -0.10700
C495        C  0.20699189  0.58925796  0.09796345    -0.09100
C496        C  0.21751858  0.57390810  0.07222835    -0.10700
C497        C  0.21434203  0.67128137  0.19601005    -0.09100
C498        C  0.22901053  0.69533082  0.21090036    -0.10700
C499        C  0.58511093  0.90154496  0.78875678    -0.09100
C500        C  0.56955379  0.92712015  0.77813190    -0.10700
C501        C  0.58556008  0.81298033  0.87897876    -0.09100
C502        C  0.56983164  0.80301551  0.90472106    -0.10700
C503        C  0.66840781  0.80456860  0.78150161    -0.09100
C504        C  0.69264949  0.79001944  0.76678000    -0.10700
C505        C  0.89590861  0.59036610  0.79098690    -0.09100
C506        C  0.92167048  0.57454306  0.78122297    -0.10700
C507        C  0.80515614  0.59013136  0.87891038    -0.09100
C508        C  0.79462953  0.57438378  0.90441016    -0.10700
C509        C  0.79875928  0.67349630  0.78183094    -0.09100
C510        C  0.78427657  0.69777927  0.76710671    -0.10700
C511        C  0.81012597  0.90094752  0.56777799    -0.09100
C512        C  0.80026753  0.92676548  0.55210671    -0.10700
C513        C  0.89736395  0.80946216  0.56772370    -0.09100
C514        C  0.92283844  0.79876012  0.55205371    -0.10700
C515        C  0.78496693  0.78955955  0.67500835    -0.09100
C516        C  0.79993914  0.80387703  0.65077972    -0.10700
loop_ 
_geom_bond_atom_site_label_1 
_geom_bond_atom_site_label_2 
_geom_bond_distance 
_geom_bond_site_symmetry_2 
_ccdc_geom_bond_type 
C1            N2   1.361       .  A
C1            N6   1.361       .  A
C1          C516   1.443       .  S
N2            C3   1.359       .  A
C3            N4   1.353       .  A
C3          C511   1.435       .  S
N4            C5   1.353       .  A
C5            N6   1.360       .  A
C5          C513   1.435       .  S
C7            N8   1.361       .  A
C7           N12   1.361       .  A
C7          C509   1.442       .  S
N8            C9   1.359       .  A
C9           N10   1.353       .  A
C9          C507   1.435       .  S
N10          C11   1.353       .  A
C11          N12   1.360       .  A
C11         C505   1.435       .  S
C13          N14   1.361       .  A
C13          N18   1.360       .  A
C13         C503   1.443       .  S
N14          C15   1.360       .  A
C15          N16   1.353       .  A
C15         C501   1.436       .  S
N16          C17   1.353       .  A
C17          N18   1.359       .  A
C17         C499   1.435       .  S
C19         C504   1.447       .  S
C19          C20   1.404       .  A
C19          C24   1.404       .  A
C20          C21   1.404       .  A
C20          H25   1.084       .  S
C21         C515   1.447       .  S
C21          C22   1.404       .  A
C22          C23   1.404       .  A
C22          H26   1.084       .  S
C23         C510   1.446       .  S
C23          C24   1.404       .  A
C24          H27   1.084       .  S
C28          N29   1.353       .  A
C28          N33   1.360       .  A
C28         C493   1.435       .  S
N29          C30   1.353       .  A
C30          N31   1.359       .  A
C30         C495   1.435       .  S
N31          C32   1.361       .  A
C32          N33   1.361       .  A
C32         C497   1.442       .  S
C34         C490   1.446       .  S
C34          C35   1.404       .  A
C34          C39   1.404       .  A
C35          C36   1.404       .  A
C35          H40   1.084       .  S
C36         C492   1.446       .  S
C36          C37   1.404       .  A
C37          C38   1.404       .  A
C37          H41   1.084       .  S
C38         C498   1.446       .  S
C38          C39   1.404       .  A
C39          H42   1.084       .  S
C43          N44   1.360       .  A
C43          N48   1.361       .  A
C43         C487   1.443       .  S
N44          C45   1.359       .  A
C45          N46   1.353       .  A
C45         C483   1.435       .  S
N46          C47   1.353       .  A
C47          N48   1.360       .  A
C47         C485   1.436       .  S
C49         C480   1.446       .  S
C49          C50   1.404       .  A
C49          C54   1.403       .  A
C50          C51   1.404       .  A
C50          H55   1.084       .  S
C51         C481   1.447       .  S
C51          C52   1.404       .  A
C52          C53   1.404       .  A
C52          H56   1.084       .  S
C53         C488   1.447       .  S
C53          C54   1.404       .  A
C54          H57   1.084       .  S
C58          N59   1.361       .  A
C58          N63   1.361       .  A
C58         C477   1.443       .  S
N59          C60   1.360       .  A
C60          N61   1.353       .  A
C60         C473   1.435       .  S
N61          C62   1.353       .  A
C62          N63   1.359       .  A
C62         C476   1.435       .  S
C64         C469   1.447       .  S
C64          C65   1.404       .  A
C64          C69   1.404       .  A
C65          C66   1.404       .  A
C65          H70   1.084       .  S
C66         C471   1.446       .  S
C66          C67   1.404       .  A
C67          C68   1.404       .  A
C67          H71   1.084       .  S
C68         C478   1.447       .  S
C68          C69   1.404       .  A
C69          H72   1.085       .  S
O73          C76   1.270       .  A
O73         Cd78   2.470   1_554  S
C74         C464   1.435       .  S
C74          O83   1.264       .  A
C74          O79   1.270       .  A
O75          C81   1.270       .  A
O75         Cd78   2.474   1_554  S
C76         C465   1.435       .  S
C76          O84   1.264       .  A
C77         C467   1.436       .  S
C77          O82   1.270       .  A
C77          O80   1.264       .  A
Cd78         O85   2.432   1_556  S
Cd78         O84   2.435   1_556  S
Cd78         O83   2.434       .  S
Cd78         O79   2.469       .  S
Cd78         O82   2.474       .  S
Cd78         O80   2.434       .  S
C81         C475   1.435       .  S
C81          O85   1.264       .  A
O86          C89   1.270       .  A
O86         Cd91   2.470       .  S
C87         C496   1.435       .  S
C87          O96   1.264       .  A
C87          O92   1.270       .  A
O88          C94   1.270       .  A
O88         Cd91   2.475   1_554  S
C89         C462   1.435       .  S
C89          O97   1.264       .  A
C90         C457   1.435       .  S
C90          O95   1.270       .  A
C90          O93   1.264       .  A
Cd91         O98   2.431   1_556  S
Cd91         O97   2.435       .  S
Cd91         O96   2.436   1_556  S
Cd91         O92   2.469   1_556  S
Cd91         O95   2.473       .  S
Cd91         O93   2.433       .  S
C94         C459   1.435       .  S
C94          O98   1.264       .  A
C99         N100   1.360       .  A
C99         N104   1.353       .  A
C99         C460   1.435       .  S
N100        C101   1.361       .  A
C101        N102   1.361       .  A
C101        C456   1.443       .  S
N102        C103   1.359       .  A
C103        N104   1.353       .  A
C103        C466   1.435       .  S
O105        C108   1.270       .  A
O105       Cd110   2.469   1_565  S
C106        C474   1.435       .  S
C106        O115   1.264       .  A
C106        O111   1.270       .  A
O107        C113   1.270       .  A
O107       Cd110   2.473       .  S
C108        C454   1.435       .  S
C108        O116   1.264       .  A
C109        C449   1.435       .  S
C109        O114   1.270       .  A
C109        O112   1.264       .  A
Cd110       O117   2.433       .  S
Cd110       O116   2.436   1_545  S
Cd110       O115   2.435       .  S
Cd110       O111   2.470       .  S
Cd110       O114   2.475   1_545  S
Cd110       O112   2.430   1_545  S
C113        C452   1.435       .  S
C113        O117   1.264       .  A
O118        C121   1.270       .  A
O118       Cd123   2.470   1_565  S
C119        C445   1.434       .  S
C119        O128   1.264       .  A
C119        O124   1.270       .  A
O120        C126   1.270       .  A
O120       Cd123   2.474   1_565  S
C121        C443   1.434       .  S
C121        O129   1.264       .  A
C122        C486   1.436       .  S
C122        O127   1.270       .  A
C122        O125   1.264       .  A
Cd123       O130   2.434   1_545  S
Cd123       O129   2.432   1_545  S
Cd123       O128   2.434       .  S
Cd123       O124   2.467       .  S
Cd123       O127   2.473       .  S
Cd123       O125   2.433       .  S
C126        C448   1.435       .  S
C126        O130   1.264       .  A
C131        N132   1.361       .  A
C131        N136   1.361       .  A
C131        C442   1.442       .  S
N132        C133   1.360       .  A
C133        N134   1.353       .  A
C133        C451   1.435       .  S
N134        C135   1.353       .  A
C135        N136   1.359       .  A
C135        C446   1.434       .  S
O137        C140   1.270       .  A
O137       Cd142   2.469       .  S
C138        C436   1.434       .  S
C138        O147   1.264       .  A
C138        O143   1.270       .  A
O139        C145   1.270       .  A
O139       Cd142   2.474       .  S
C140        C437   1.434       .  S
C140        O148   1.264       .  A
C141        C440   1.436       .  S
C141        O146   1.270       .  A
C141        O144   1.264       .  A
Cd142       O149   2.434       .  S
Cd142       O148   2.432       .  S
Cd142       O147   2.434   1_455  S
Cd142       O143   2.467   1_455  S
Cd142       O146   2.473   1_455  S
Cd142       O144   2.433   1_455  S
C145        C494   1.435       .  S
C145        O149   1.264       .  A
O150        C153   1.270       .  A
O150       Cd155   2.469       .  S
C151        C433   1.435       .  S
C151        O160   1.264       .  A
C151        O156   1.270       .  A
O152        C158   1.270       .  A
O152       Cd155   2.475   1_655  S
C153        C484   1.435       .  S
C153        O161   1.264       .  A
C154        C431   1.436       .  S
C154        O159   1.270       .  A
C154        O157   1.264       .  A
Cd155       O162   2.433   1_455  S
Cd155       O161   2.435       .  S
Cd155       O160   2.436   1_455  S
Cd155       O156   2.470   1_455  S
Cd155       O159   2.475       .  S
Cd155       O157   2.433       .  S
C158        C430   1.435       .  S
C158        O162   1.264       .  A
C163        N164   1.360       .  A
C163        N168   1.353       .  A
C163        C432   1.435       .  S
N164        C165   1.361       .  A
C165        N166   1.361       .  A
C165        C427   1.443       .  S
N166        C167   1.359       .  A
C167        N168   1.353       .  A
C167        C438   1.435       .  S
C169        C455   1.447       .  S
C169        C170   1.404       .  A
C169        C174   1.404       .  A
C170        C171   1.404       .  A
C170        H175   1.084       .  S
C171        C428   1.447       .  S
C171        C172   1.404       .  A
C172        C173   1.404       .  A
C172        H176   1.084       .  S
C173        C441   1.446       .  S
C173        C174   1.404       .  A
C174        H177   1.084       .  S
C178        N179   1.353       .  A
C178        N183   1.360       .  A
C178        C447   1.435       .  S
N179        C180   1.353       .  A
C180        N181   1.359       .  A
C180        C426   1.435       .  S
N181        C182   1.361       .  A
C182        N183   1.361       .  A
C182        C491   1.442       .  S
C184        N185   1.361       .  A
C184        N189   1.361       .  A
C184        C472   1.442       .  S
N185        C186   1.360       .  A
C186        N187   1.353       .  A
C186        C424   1.435       .  S
N187        C188   1.353       .  A
C188        N189   1.359       .  A
C188        C434   1.435       .  S
C190        N191   1.353       .  A
C190        N195   1.359       .  A
C190        C453   1.435       .  S
N191        C192   1.353       .  A
C192        N193   1.360       .  A
C192        C421   1.435       .  S
N193        C194   1.361       .  A
C194        N195   1.361       .  A
C194        C489   1.442       .  S
C196        N197   1.361       .  A
C196        N201   1.361       .  A
C196        C482   1.443       .  S
N197        C198   1.359       .  A
C198        N199   1.353       .  A
C198        C419   1.435       .  S
N199        C200   1.353       .  A
C200        N201   1.360       .  A
C200        C461   1.435       .  S
C202        N203   1.361       .  A
C202        N207   1.361       .  A
C202        C479   1.442       .  S
N203        C204   1.360       .  A
C204        N205   1.353       .  A
C204        C468   1.435       .  S
N205        C206   1.353       .  A
C206        N207   1.359       .  A
C206        C418   1.435       .  S
C208        N209   1.361       .  A
C208        N213   1.360       .  A
C208        C470   1.443       .  S
N209        C210   1.360       .  A
C210        N211   1.353       .  A
C210        C439   1.436       .  S
N211        C212   1.353       .  A
C212        N213   1.359       .  A
C212        C415   1.435       .  S
C214        N215   1.360       .  A
C214        N219   1.353       .  A
C214        C411   1.435       .  S
N215        C216   1.361       .  A
C216        N217   1.361       .  A
C216        C413   1.442       .  S
N217        C218   1.359       .  A
C218        N219   1.353       .  A
C218        C463   1.435       .  S
O220        C223   1.270       .  A
O220       Cd225   2.470       .  S
C221        C416   1.435       .  S
C221        O230   1.264       .  A
C221        O226   1.270       .  A
O222        C228   1.270       .  A
O222       Cd225   2.475   1_554  S
C223        C508   1.435       .  S
C223        O231   1.264       .  A
C224        C412   1.435       .  S
C224        O229   1.270       .  A
C224        O227   1.264       .  A
Cd225       O232   2.433   1_556  S
Cd225       O231   2.436       .  S
Cd225       O230   2.435   1_556  S
Cd225       O226   2.469   1_556  S
Cd225       O229   2.475       .  S
Cd225       O227   2.432       .  S
C228        C409   1.436       .  S
C228        O232   1.264       .  A
C233        N234   1.360       .  A
C233        N238   1.353       .  A
C233        C429   1.435       .  S
N234        C235   1.361       .  A
C235        N236   1.361       .  A
C235        C407   1.442       .  S
N236        C237   1.359       .  A
C237        N238   1.353       .  A
C237        C406   1.435       .  S
O239        C242   1.270       .  A
O239       Cd244   2.469       .  S
C240        C405   1.435       .  S
C240        O249   1.264       .  A
C240        O245   1.270       .  A
O241        C247   1.270       .  A
O241       Cd244   2.474       .  S
C242        C403   1.435       .  S
C242        O250   1.264       .  A
C243        C506   1.436       .  S
C243        O248   1.270       .  A
C243        O246   1.264       .  A
Cd244       O251   2.432       .  S
Cd244       O250   2.435       .  S
Cd244       O249   2.434   1_455  S
Cd244       O245   2.470   1_455  S
Cd244       O248   2.474   1_455  S
Cd244       O246   2.433   1_455  S
C247        C420   1.435       .  S
C247        O251   1.264       .  A
C252        N253   1.353       .  A
C252        N257   1.359       .  A
C252        C404   1.435       .  S
N253        C254   1.353       .  A
C254        N255   1.360       .  A
C254        C400   1.435       .  S
N255        C256   1.361       .  A
C256        N257   1.361       .  A
C256        C402   1.443       .  S
C258        N259   1.361       .  A
C258        N263   1.361       .  A
C258        C397   1.442       .  S
N259        C260   1.359       .  A
C260        N261   1.353       .  A
C260        C435   1.434       .  S
N261        C262   1.353       .  A
C262        N263   1.360       .  A
C262        C395   1.435       .  S
O264        C267   1.270       .  A
O264       Cd269   2.470   1_655  S
C265        C425   1.435       .  S
C265        O274   1.264       .  A
C265        O270   1.270       .  A
O266        C272   1.270       .  A
O266       Cd269   2.475       .  S
C267        C514   1.435       .  S
C267        O275   1.264       .  A
C268        C396   1.435       .  S
C268        O273   1.270       .  A
C268        O271   1.264       .  A
Cd269       O276   2.430       .  S
Cd269       O275   2.436   1_455  S
Cd269       O274   2.437       .  S
Cd269       O270   2.469       .  S
Cd269       O273   2.473   1_455  S
Cd269       O271   2.432   1_455  S
C272        C399   1.435       .  S
C272        O276   1.264       .  A
C277        N278   1.359       .  A
C277        N282   1.353       .  A
C277        C392   1.435       .  S
N278        C279   1.361       .  A
C279        N280   1.361       .  A
C279        C394   1.443       .  S
N280        C281   1.360       .  A
C281        N282   1.353       .  A
C281        C450   1.435       .  S
O283        C286   1.270       .  A
O283       Cd288   2.469       .  S
C284        C391   1.435       .  S
C284        O293   1.264       .  A
C284        O289   1.270       .  A
O285        C291   1.270       .  A
O285       Cd288   2.474       .  S
C286        C389   1.435       .  S
C286        O294   1.264       .  A
C287        C512   1.435       .  S
C287        O292   1.270       .  A
C287        O290   1.264       .  A
Cd288       O295   2.433       .  S
Cd288       O294   2.435       .  S
Cd288       O293   2.435   1_545  S
Cd288       O289   2.469   1_545  S
Cd288       O292   2.474   1_545  S
Cd288       O290   2.432   1_545  S
C291        C423   1.436       .  S
C291        O295   1.264       .  A
C296        N297   1.353       .  A
C296        N301   1.359       .  A
C296        C385   1.435       .  S
N297        C298   1.353       .  A
C298        N299   1.360       .  A
C298        C410   1.435       .  S
N299        C300   1.361       .  A
C300        N301   1.361       .  A
C300        C388   1.443       .  S
C302        N303   1.353       .  A
C302        N307   1.360       .  A
C302        C458   1.435       .  S
N303        C304   1.353       .  A
C304        N305   1.359       .  A
C304        C381   1.434       .  S
N305        C306   1.361       .  A
C306        N307   1.361       .  A
C306        C383   1.442       .  S
O308        C311   1.270       .  A
O308       Cd313   2.469   1_554  S
C309        C382   1.434       .  S
C309        O318   1.264       .  A
C309        O314   1.270       .  A
O310        C316   1.270       .  A
O310       Cd313   2.474   1_554  S
C311        C386   1.435       .  S
C311        O319   1.264       .  A
C312        C502   1.436       .  S
C312        O317   1.270       .  A
C312        O315   1.264       .  A
Cd313       O320   2.434   1_556  S
Cd313       O319   2.432   1_556  S
Cd313       O318   2.434       .  S
Cd313       O314   2.467       .  S
Cd313       O317   2.474       .  S
Cd313       O315   2.433       .  S
C316        C422   1.435       .  S
C316        O320   1.264       .  A
C321        N322   1.353       .  A
C321        N326   1.359       .  A
C321        C390   1.435       .  S
N322        C323   1.353       .  A
C323        N324   1.360       .  A
C323        C378   1.435       .  S
N324        C325   1.361       .  A
C325        N326   1.361       .  A
C325        C379   1.442       .  S
C327        N328   1.360       .  A
C327        N332   1.353       .  A
C327        C373   1.435       .  S
N328        C329   1.361       .  A
C329        N330   1.361       .  A
C329        C376   1.443       .  S
N330        C331   1.359       .  A
C331        N332   1.353       .  A
C331        C444   1.435       .  S
O333        C336   1.270       .  A
O333       Cd338   2.470       .  S
C334        C500   1.435       .  S
C334        O343   1.264       .  A
C334        O339   1.270       .  A
O335        C341   1.270       .  A
O335       Cd338   2.475   1_565  S
C336        C417   1.435       .  S
C336        O344   1.264       .  A
C337        C377   1.435       .  S
C337        O342   1.270       .  A
C337        O340   1.264       .  A
Cd338       O345   2.433   1_545  S
Cd338       O344   2.436       .  S
Cd338       O343   2.435   1_545  S
Cd338       O339   2.469   1_545  S
Cd338       O342   2.475       .  S
Cd338       O340   2.433       .  S
C341        C374   1.436       .  S
C341        O345   1.264       .  A
C346        C375   1.447       .  S
C346        C347   1.404       .  A
C346        C351   1.404       .  A
C347        C348   1.404       .  A
C347        H352   1.084       .  S
C348        C401   1.447       .  S
C348        C349   1.404       .  A
C349        C350   1.404       .  A
C349        H353   1.084       .  S
C350        C384   1.446       .  S
C350        C351   1.404       .  A
C351        H354   1.084       .  S
C355        C387   1.447       .  S
C355        C356   1.404       .  A
C355        C360   1.404       .  A
C356        C357   1.404       .  A
C356        H361   1.084       .  S
C357        C393   1.447       .  S
C357        C358   1.404       .  A
C358        C359   1.404       .  A
C358        H362   1.084       .  S
C359        C398   1.446       .  S
C359        C360   1.404       .  A
C360        H363   1.084       .  S
C364        C414   1.446       .  S
C364        C365   1.404       .  A
C364        C369   1.404       .  A
C365        C366   1.404       .  A
C365        H370   1.084       .  S
C366        C380   1.446       .  S
C366        C367   1.404       .  A
C367        C368   1.404       .  A
C367        H371   1.084       .  S
C368        C408   1.446       .  S
C368        C369   1.404       .  A
C369        H372   1.084       .  S
C373        C374   1.206       .  T
C375        C376   1.210       .  T
C377        C378   1.206       .  T
C379        C380   1.210       .  T
C381        C382   1.205       .  T
C383        C384   1.210       .  T
C385        C386   1.205       .  T
C387        C388   1.210       .  T
C389        C390   1.206       .  T
C391        C392   1.206       .  T
C393        C394   1.210       .  T
C395        C396   1.206       .  T
C397        C398   1.210       .  T
C399        C400   1.206       .  T
C401        C402   1.210       .  T
C403        C404   1.206       .  T
C405        C406   1.206       .  T
C407        C408   1.210       .  T
C409        C410   1.206       .  T
C411        C412   1.206       .  T
C413        C414   1.210       .  T
C415        C416   1.206       .  T
C417        C418   1.206       .  T
C419        C420   1.206       .  T
C421        C422   1.206       .  T
C423        C424   1.206       .  T
C425        C426   1.206       .  T
C427        C428   1.210       .  T
C429        C430   1.206       .  T
C431        C432   1.206       .  T
C433        C434   1.206       .  T
C435        C436   1.205       .  T
C437        C438   1.205       .  T
C439        C440   1.206       .  T
C441        C442   1.210       .  T
C443        C444   1.205       .  T
C445        C446   1.205       .  T
C447        C448   1.206       .  T
C449        C450   1.206       .  T
C451        C452   1.206       .  T
C453        C454   1.206       .  T
C455        C456   1.210       .  T
C457        C458   1.206       .  T
C459        C460   1.206       .  T
C461        C462   1.206       .  T
C463        C464   1.206       .  T
C465        C466   1.206       .  T
C467        C468   1.206       .  T
C469        C470   1.210       .  T
C471        C472   1.210       .  T
C473        C474   1.206       .  T
C475        C476   1.206       .  T
C477        C478   1.210       .  T
C479        C480   1.210       .  T
C481        C482   1.210       .  T
C483        C484   1.206       .  T
C485        C486   1.206       .  T
C487        C488   1.210       .  T
C489        C490   1.210       .  T
C491        C492   1.210       .  T
C493        C494   1.206       .  T
C495        C496   1.206       .  T
C497        C498   1.210       .  T
C499        C500   1.206       .  T
C501        C502   1.206       .  T
C503        C504   1.210       .  T
C505        C506   1.206       .  T
C507        C508   1.206       .  T
C509        C510   1.210       .  T
C511        C512   1.206       .  T
C513        C514   1.206       .  T
C515        C516   1.210       .  T
