geometry optimzed in LAMMPS
_audit_creation_date              2020-11-30 
_audit_creation_method            'lammps2cif' 
_symmetry_space_group_name_H-M    'P1' 
_symmetry_Int_Tables_number       1 
_symmetry_cell_setting            triclinic 
loop_ 
_symmetry_equiv_pos_as_xyz 
  x,y,z 
_cell_length_a                    31.29447578 
_cell_length_b                    34.11333780587812 
_cell_length_c                    67.39573883889118 
_cell_angle_alpha                 90.17453939494273 
_cell_angle_beta                  89.76205746186186 
_cell_angle_gamma                 90.38996892433286 
loop_ 
_atom_site_label 
_atom_site_type_symbol 
_atom_site_fract_x 
_atom_site_fract_y 
_atom_site_fract_z 
_atom_site_charge 
In1        In  0.37448150  0.37606575  0.25149558     1.36900
C2          C  0.32163335  0.33191913  0.27379832     0.79100
O3          O  0.33699284  0.43093511  0.24339802    -0.59300
O4          O  0.32825287  0.37956379  0.22629787    -0.50300
C5          C  0.42427345  0.42142909  0.27460161     0.71800
O6          O  0.41279767  0.38704618  0.27903634    -0.45100
C7          C  0.43154302  0.33643492  0.22921292     0.76500
O8          O  0.32982365  0.36753905  0.27725716    -0.57000
O9          O  0.41507073  0.36859783  0.22434078    -0.47100
O10         O  0.33839644  0.31912848  0.25806857    -0.53400
C11         C  0.31934615  0.41530088  0.22856536     0.86600
O12         O  0.41230945  0.43215330  0.25765927    -0.55300
O13         O  0.42053933  0.32507600  0.24624281    -0.58600
N14         N  0.99535959  0.50102273  0.70720023    -0.35100
N15         N  0.45946844  0.45083666  0.67561553    -0.55700
N16         N  0.48146363  0.01549873  0.64799828    -0.35100
N17         N  0.02146805  0.06265314  0.67788291    -0.55700
C18         C  0.48398001  0.46872242  0.71769377     0.28500
C19         C  0.02492793  0.02334057  0.71748532     0.28500
C20         C  0.47208816  0.98579012  0.63539787     0.28500
C21         C  0.50358918  0.04273027  0.63757925     0.28500
C22         C  0.44114853  0.43365803  0.69165549     0.37100
C23         C  0.43781867  0.43772085  0.65942402     0.37100
C24         C  0.02922732  0.08145938  0.69513919     0.37100
C25         C  0.01548154  0.09043710  0.66387382     0.37100
C26         C  0.00546903  0.46902552  0.73560238    -0.20400
C27         C  0.03160021  0.50190226  0.73567202    -0.20400
C28         C  0.48981255  0.99427917  0.61687317    -0.20400
C29         C  0.51032977  0.02966309  0.61843655    -0.20400
C30         C  0.40868603  0.40860532  0.68545538    -0.21400
C31         C  0.40728709  0.41046499  0.66511722    -0.21400
C32         C  0.02865504  0.12175644  0.69192012    -0.21400
C33         C  0.01922357  0.12733855  0.67217016    -0.21400
C34         C  0.45343477  0.43983238  0.71177602    -0.16800
C35         C  0.04022131  0.06202397  0.71302059    -0.16800
C36         C  0.00875480  0.08169941  0.64364696    -0.16800
C37         C  0.44500346  0.45087213  0.63966692    -0.16800
H38         H  0.00278243  0.44768297  0.74740124     0.16100
H39         H  0.05173225  0.51100904  0.74786826     0.16100
H40         H  0.48717156  0.97873116  0.60304219     0.16100
H41         H  0.52534490  0.04557210  0.60637156     0.16100
H42         H  0.38718069  0.39155729  0.69458747     0.14400
H43         H  0.38532439  0.39443948  0.65570253     0.14400
H44         H  0.03320930  0.14513144  0.70254781     0.14400
H45         H  0.01588087  0.15528839  0.66481652     0.14400
H46         H  0.47907553  0.01294999  0.69452161     0.27700
H47         H  0.46638021  0.02054484  0.66155597     0.27700
C48         C  0.26075795  0.02650442  0.51415710     0.03800
C49         C  0.27518197  0.98672458  0.51558977     0.03800
C50         C  0.27223281  0.46569353  0.49801508    -0.16800
C51         C  0.25824000  0.48117092  0.47991486     0.03800
C52         C  0.23979974  0.51868802  0.47927713     0.03800
C53         C  0.24469340  0.04010456  0.49587722    -0.16800
H54         H  0.23179776  0.06942802  0.49486208     0.05800
H55         H  0.28343837  0.43577219  0.49814441     0.05800
N56         N  0.00947452  0.49451203  0.35470715    -0.35100
N57         N  0.05567065  0.03671124  0.32285626    -0.55700
N58         N  0.50014886  0.00144393  0.29270355    -0.35100
N59         N  0.46130488  0.45283167  0.32444783    -0.55700
C60         C  0.04400596  0.50857733  0.36441683     0.28500
C61         C  0.99546387  0.46279772  0.36482342     0.28500
C62         C  0.02840433  0.02163434  0.28125927     0.28500
C63         C  0.48088397  0.47283536  0.28237564     0.28500
C64         C  0.06953840  0.05493811  0.33950000     0.37100
C65         C  0.05933893  0.06308361  0.30806126     0.37100
C66         C  0.44027199  0.44129204  0.34101879     0.37100
C67         C  0.43528223  0.44442211  0.30908593     0.37100
C68         C  0.05194210  0.48564856  0.38095760    -0.20400
C69         C  0.02119093  0.45672950  0.38123357    -0.20400
C70         C  0.52762618  0.00613657  0.26216530    -0.20400
C71         C  0.49878201  0.97513802  0.26233445    -0.20400
C72         C  0.08102548  0.09319446  0.33548643    -0.21400
C73         C  0.07471967  0.09847374  0.31550192    -0.21400
C74         C  0.40052603  0.42622377  0.33633488    -0.21400
C75         C  0.39719869  0.42827026  0.31605602    -0.21400
C76         C  0.07575126  0.03582968  0.35768917    -0.16800
C77         C  0.45877330  0.44039318  0.35995660    -0.16800
C78         C  0.44742946  0.44734343  0.28889086    -0.16800
C79         C  0.05393732  0.05396205  0.28772359    -0.16800
H80         H  0.07701755  0.48950032  0.39181613     0.16100
H81         H  0.01801770  0.43402859  0.39234024     0.16100
H82         H  0.54638648  0.01562294  0.24951872     0.16100
H83         H  0.49131758  0.95645721  0.24980894     0.16100
H84         H  0.09193764  0.11494913  0.34600055     0.14400
H85         H  0.08092093  0.12522045  0.30736293     0.14400
H86         H  0.37663670  0.41505650  0.34652180     0.14400
H87         H  0.36991845  0.41874200  0.30744477     0.14400
H88         H  0.99365973  0.50823150  0.34309673     0.27700
H89         H  0.98829371  0.51160184  0.30750021     0.27700
C90         C  0.99022547  0.24014880  0.51674137     0.03800
C91         C  0.46862680  0.27681524  0.51590939     0.03800
C92         C  0.46303427  0.29530117  0.49761974    -0.16800
C93         C  0.97989438  0.27903154  0.48007618     0.03800
C94         C  0.00488580  0.24472191  0.48097467     0.03800
C95         C  0.00896322  0.22512430  0.49923062    -0.16800
H96         H  0.02698876  0.19814732  0.49978890     0.05800
H97         H  0.44485130  0.32222437  0.49696182     0.05800
N98         N  0.27372084  0.23975752  0.65066192    -0.35100
N99         N  0.30930426  0.28925813  0.68006086    -0.55700
N100        N  0.26835499  0.23838035  0.71027006    -0.35100
N101        N  0.23037968  0.19057095  0.67840739    -0.55700
C102        C  0.28596637  0.27085506  0.63969044     0.28500
C103        C  0.24800722  0.21747468  0.63929610     0.28500
C104        C  0.28157101  0.26970788  0.72115558     0.28500
C105        C  0.23555072  0.22059061  0.72008465     0.28500
C106        C  0.33462127  0.29835881  0.66438639     0.37100
C107        C  0.33236249  0.29708657  0.69642105     0.37100
C108        C  0.23365279  0.16525209  0.66294359     0.37100
C109        C  0.22185845  0.16906807  0.69470236     0.37100
C110        C  0.26601626  0.26918030  0.62132812    -0.20400
C111        C  0.24181734  0.23540298  0.62113943    -0.20400
C112        C  0.25729884  0.27179213  0.73834385    -0.20400
C113        C  0.22800377  0.24112727  0.73760280    -0.20400
C114        C  0.37373725  0.31248106  0.67076159    -0.21400
C115        C  0.37240612  0.31146575  0.69112947    -0.21400
C116        C  0.22726497  0.12721196  0.66941172    -0.21400
C117        C  0.21896588  0.12967617  0.68953055    -0.21400
C118        C  0.32177483  0.29412853  0.64449213    -0.16800
C119        C  0.24069617  0.17760180  0.64317385    -0.16800
C120        C  0.21459185  0.18521242  0.71384110    -0.16800
C121        C  0.31593695  0.29524972  0.71591329    -0.16800
H122        H  0.27081367  0.28824182  0.60873852     0.16100
H123        H  0.22500209  0.22342832  0.60846678     0.16100
H124        H  0.26009188  0.29335054  0.75009095     0.16100
H125        H  0.20408411  0.23498299  0.74880051     0.16100
H126        H  0.40048928  0.32205804  0.66174303     0.14400
H127        H  0.39802930  0.32020150  0.70095391     0.14400
H128        H  0.22800980  0.10064070  0.66062240     0.14400
H129        H  0.21261150  0.10519245  0.69930844     0.14400
H130        H  0.28957367  0.22950288  0.66315930     0.27700
H131        H  0.28356284  0.22788756  0.69758260     0.27700
N132        N  0.22876388  0.26612383  0.35347009    -0.35100
N133        N  0.27919072  0.30551833  0.32334370    -0.55700
N134        N  0.24752448  0.25146074  0.29342040    -0.35100
N135        N  0.19254076  0.21520029  0.32408382    -0.55700
C136        C  0.23962939  0.29989884  0.36262121     0.28500
C137        C  0.19446622  0.25156457  0.36321347     0.28500
C138        C  0.26570043  0.27969029  0.28188717     0.28500
C139        C  0.21913892  0.23114530  0.28214974     0.28500
C140        C  0.29754490  0.31973735  0.33998421     0.37100
C141        C  0.30690493  0.31294650  0.30845745     0.37100
C142        C  0.18020224  0.19626479  0.34083517     0.37100
C143        C  0.18866233  0.18919041  0.30905469     0.37100
C144        C  0.21182224  0.30711644  0.37827545    -0.20400
C145        C  0.18317185  0.27651540  0.37863997    -0.20400
C146        C  0.24905470  0.27693785  0.26290547    -0.20400
C147        C  0.21967033  0.24639424  0.26306786    -0.20400
C148        C  0.33725874  0.33563839  0.33586403    -0.21400
C149        C  0.34333474  0.33133154  0.31580604    -0.21400
C150        C  0.16931421  0.15793699  0.33660510    -0.21400
C151        C  0.17431016  0.15339791  0.31641443    -0.21400
C152        C  0.27655368  0.32199967  0.35832949    -0.16800
C153        C  0.17583791  0.21463874  0.35949411    -0.16800
C154        C  0.19409854  0.19852631  0.28868573    -0.16800
C155        C  0.29753054  0.30699815  0.28820617    -0.16800
H156        H  0.21265775  0.33142363  0.38863154     0.16100
H157        H  0.15751279  0.27273209  0.38929532     0.16100
H158        H  0.25690703  0.29520572  0.25029005     0.16100
H159        H  0.20068228  0.23680908  0.25055903     0.16100
H160        H  0.35930063  0.34885448  0.34626362     0.14400
H161        H  0.37128680  0.34080827  0.30758669     0.14400
H162        H  0.15973464  0.13564291  0.34709183     0.14400
H163        H  0.16839566  0.12670492  0.30812646     0.14400
H164        H  0.24709750  0.25135052  0.34293597     0.27700
H165        H  0.25651206  0.24425063  0.30779564     0.27700
C166        C  0.45748087  0.48914519  0.02175487     0.03800
C167        C  0.01412347  0.00772164  0.01801026     0.03800
C168        C  0.02729539  0.02382636  0.99974793    -0.16800
C169        C  0.50404936  0.01699043  0.98229990     0.03800
C170        C  0.46742164  0.99264767  0.98318273     0.03800
C171        C  0.43598321  0.47906975  0.00424231    -0.16800
H172        H  0.40815948  0.46002749  0.00489091     0.05800
H173        H  0.05587024  0.04194078  0.99908004     0.05800
N174        N  0.26543478  0.00294703  0.78991440    -0.35100
N175        N  0.22401779  0.05500351  0.81966655    -0.55700
N176        N  0.26166605  0.01125400  0.85069466    -0.35100
N177        N  0.29966721  0.45570785  0.82485306    -0.55700
C178        C  0.23568385  0.02100639  0.77849878     0.28500
C179        C  0.28113865  0.47174251  0.78203822     0.28500
C180        C  0.23727615  0.03618032  0.86140439     0.28500
C181        C  0.27474255  0.98286660  0.86308734     0.28500
C182        C  0.21673088  0.07406312  0.80256116     0.37100
C183        C  0.22076842  0.08198564  0.83436773     0.37100
C184        C  0.31543413  0.43440498  0.80954364     0.37100
C185        C  0.31101339  0.43683562  0.84163856     0.37100
C186        C  0.23527609  0.50323946  0.76269630    -0.20400
C187        C  0.26377643  0.47248997  0.76315707    -0.20400
C188        C  0.23402566  0.02294448  0.88077522    -0.20400
C189        C  0.25758100  0.98932897  0.88183340    -0.20400
C190        C  0.20847002  0.11332840  0.80645522    -0.21400
C191        C  0.21103640  0.11832413  0.82663736    -0.21400
C192        C  0.33554875  0.40121077  0.81675290    -0.21400
C193        C  0.33248435  0.40268844  0.83699323    -0.21400
C194        C  0.21278209  0.05580600  0.78377588    -0.16800
C195        C  0.31034974  0.44298876  0.78908122    -0.16800
C196        C  0.30715684  0.45184334  0.86111834    -0.16800
C197        C  0.22394463  0.07326966  0.85473251    -0.16800
H198        H  0.21245742  0.00818137  0.74816139     0.16100
H199        H  0.26967173  0.45234339  0.75106156     0.16100
H200        H  0.21837863  0.03683373  0.89323746     0.16100
H201        H  0.26307144  0.97303113  0.89528231     0.16100
H202        H  0.20107491  0.13598069  0.79581453     0.14400
H203        H  0.20560413  0.14535010  0.83468571     0.14400
H204        H  0.34993690  0.37764262  0.80836597     0.14400
H205        H  0.34507636  0.38131621  0.84720710     0.14400
H206        H  0.27715615  0.01344977  0.80329874     0.27700
H207        H  0.27544915  0.01741350  0.83703435     0.27700
N208        N  0.48937428  0.23345497  0.85485938    -0.35100
N209        N  0.03957190  0.19262389  0.82511908    -0.55700
N210        N  0.01239743  0.24905414  0.79495578    -0.35100
N211        N  0.45867929  0.28643802  0.82510579    -0.55700
C212        C  0.49892123  0.19986115  0.86437165     0.28500
C213        C  0.45505115  0.24897632  0.86421591     0.28500
C214        C  0.03000544  0.22064278  0.78338813     0.28500
C215        C  0.48569902  0.27045524  0.78336304     0.28500
C216        C  0.05568314  0.17638632  0.84182470     0.37100
C217        C  0.06676854  0.18345627  0.81017098     0.37100
C218        C  0.44363082  0.30450989  0.84156758     0.37100
C219        C  0.45536946  0.31247267  0.81020046     0.37100
C220        C  0.47040273  0.19399512  0.87992846    -0.20400
C221        C  0.44291418  0.22512070  0.87991764    -0.20400
C222        C  0.01477273  0.22457097  0.76419532    -0.20400
C223        C  0.98675773  0.25582008  0.76426768    -0.20400
C224        C  0.09338644  0.15712963  0.83757090    -0.21400
C225        C  0.10040222  0.16160052  0.81754464    -0.21400
C226        C  0.43147997  0.34239265  0.83730335    -0.21400
C227        C  0.43907480  0.34757940  0.81739790    -0.21400
C228        C  0.03476971  0.17627470  0.86046820    -0.16800
C229        C  0.43618851  0.28532231  0.85966925    -0.16800
C230        C  0.46074876  0.30299212  0.78990832    -0.16800
C231        C  0.05985013  0.19181558  0.78978016    -0.16800
H232        H  0.46975625  0.17002187  0.89041181     0.16100
H233        H  0.41726582  0.22975581  0.89046563     0.16100
H234        H  0.02244521  0.20645661  0.75147998     0.16100
H235        H  0.96903508  0.26624112  0.75160621     0.16100
H236        H  0.11337732  0.14110756  0.84776104     0.14400
H237        H  0.12712758  0.14986334  0.80932769     0.14400
H238        H  0.41808921  0.36371348  0.84743166     0.14400
H239        H  0.43234056  0.37386566  0.80905333     0.14400
H240        H  0.50823382  0.24715150  0.84418351     0.27700
H241        H  0.52045713  0.25503308  0.80947404     0.27700
In242      In  0.12605514  0.12550721  0.25003345     1.36900
C243        C  0.16841312  0.07166410  0.22790142     0.79100
O244        O  0.18524163  0.16197153  0.25780905    -0.59300
O245        O  0.13263647  0.16194603  0.27757552    -0.50300
C246        C  0.08561722  0.17923579  0.22739974     0.71800
O247        O  0.12279713  0.16677037  0.22400855    -0.45100
C248        C  0.07947713  0.07776817  0.27333660     0.76500
O249        O  0.13027117  0.08181620  0.22498875    -0.57000
O250        O  0.11731275  0.08832329  0.27703042    -0.47100
O251        O  0.18519059  0.08822725  0.24271910    -0.53400
C252        C  0.17010121  0.17388107  0.27411719     0.86600
O253        O  0.06875224  0.16459827  0.24270133    -0.55300
O254        O  0.06538376  0.09050234  0.25708320    -0.58600
N255        N  0.20956324  0.46066403  0.15140090    -0.35100
N256        N  0.18840855  0.02233278  0.17937291    -0.55700
N257        N  0.24483442  0.99180684  0.20961081    -0.35100
N258        N  0.26642123  0.42867449  0.18009018    -0.55700
C259        C  0.17459550  0.47419747  0.14214316     0.28500
C260        C  0.21996479  0.42643788  0.14260123     0.28500
C261        C  0.21802658  0.01379083  0.22096120     0.28500
C262        C  0.26264554  0.46578623  0.22037380     0.28500
C263        C  0.17293051  0.03757739  0.16237600     0.37100
C264        C  0.18366762  0.05026549  0.19343173     0.37100
C265        C  0.28187312  0.41139342  0.16344384     0.37100
C266        C  0.29743669  0.42606472  0.19384364     0.37100
C267        C  0.16200868  0.44786910  0.12750221    -0.20400
C268        C  0.19082197  0.41764582  0.12777184    -0.20400
C269        C  0.22101804  0.00149539  0.24049943    -0.20400
C270        C  0.24991187  0.97084073  0.24083628    -0.20400
C271        C  0.15831196  0.07521741  0.16551997    -0.21400
C272        C  0.16562868  0.08348961  0.18515870    -0.21400
C273        C  0.32265705  0.39776459  0.16654686    -0.21400
C274        C  0.33272051  0.40715888  0.18581219    -0.21400
C275        C  0.16927058  0.01670415  0.14445120    -0.16800
C276        C  0.25847282  0.40646802  0.14581547    -0.16800
C277        C  0.29254838  0.43691346  0.21401192    -0.16800
C278        C  0.19156636  0.04475748  0.21391739    -0.16800
H279        H  0.13597492  0.45098211  0.11711101     0.16100
H280        H  0.19133913  0.39294524  0.11765484     0.16100
H281        H  0.20386622  0.01304742  0.25318020     0.16100
H282        H  0.25928449  0.95462197  0.25386539     0.16100
H283        H  0.14398700  0.09457765  0.15478136     0.14400
H284        H  0.15851943  0.11088441  0.19251822     0.14400
H285        H  0.34278259  0.38288413  0.15593951     0.14400
H286        H  0.36269348  0.40104413  0.19306033     0.14400
H287        H  0.22926825  0.47706619  0.16069651     0.27700
H288        H  0.24776718  0.49484595  0.19323014     0.27700
C289        C  0.26624707  0.26533616  0.98047048     0.03800
C290        C  0.23771101  0.23309033  0.97941677     0.03800
C291        C  0.21688003  0.22029109  0.99668644    -0.16800
C292        C  0.22474148  0.23865692  0.01496799     0.03800
C293        C  0.25439024  0.27006013  0.01617409     0.03800
C294        C  0.27460440  0.28326995  0.99883245    -0.16800
H295        H  0.29703719  0.30758257  0.99962442     0.05800
H296        H  0.19445134  0.19597309  0.99590377     0.05800
In297      In  0.12855686  0.12147037  0.74932910     1.36900
C298        C  0.18349091  0.16387770  0.72700315     0.79100
O299        O  0.08828356  0.13090821  0.77686570    -0.59300
O300        O  0.10151834  0.18078398  0.75947695    -0.50300
C301        C  0.07051254  0.08246529  0.72686395     0.71800
O302        O  0.06926132  0.11861918  0.73039665    -0.45100
C303        C  0.18171378  0.07512859  0.77016016     0.76500
O304        O  0.15443081  0.14208950  0.72003416    -0.57000
O305        O  0.14685011  0.08850090  0.77662608    -0.47100
O306        O  0.18378254  0.16506331  0.74573106    -0.53400
C307        C  0.08349990  0.16732835  0.77482336     0.86600
O308        O  0.10125552  0.06570932  0.73527248    -0.55300
O309        O  0.18875289  0.08318084  0.75220371    -0.58600
In310      In  0.38486019  0.37082887  0.75235894     1.36900
C311        C  0.43228872  0.41500494  0.72728190     0.79100
O312        O  0.32130575  0.39989672  0.76041434    -0.59300
O313        O  0.37595017  0.41399805  0.77733135    -0.50300
C314        C  0.33586432  0.32267980  0.73040639     0.71800
O315        O  0.34421972  0.35773014  0.72590619    -0.45100
C316        C  0.43451466  0.32614900  0.77570943     0.76500
O317        O  0.41415581  0.42900595  0.74244115    -0.57000
O318        O  0.39618932  0.33457129  0.77945757    -0.47100
O319        O  0.42831894  0.37833955  0.72567981    -0.53400
C320        C  0.33636743  0.41887799  0.77490564     0.86600
O321        O  0.35001651  0.31251866  0.74705874    -0.55300
O322        O  0.44815690  0.34034709  0.75962529    -0.58600
N323        N  0.04476546  0.29398207  0.15408956    -0.35100
N324        N  0.48704766  0.32550546  0.18204725    -0.55700
N325        N  0.51164013  0.26099363  0.20971703    -0.35100
N326        N  0.07328280  0.23381072  0.18049709    -0.55700
C327        C  0.03554487  0.32935826  0.14643772     0.28500
C328        C  0.08116555  0.28187598  0.14550772     0.28500
C329        C  0.49083483  0.28654876  0.22180286     0.28500
C330        C  0.03724298  0.23821538  0.22109085     0.28500
C331        C  0.46992805  0.33751747  0.16470022     0.37100
C332        C  0.45435303  0.32192709  0.19494836     0.37100
C333        C  0.08748670  0.21946084  0.16298026     0.37100
C334        C  0.07310600  0.20361838  0.19333132     0.37100
C335        C  0.06815976  0.34121749  0.13373093    -0.20400
C336        C  0.09670656  0.31059573  0.13281388    -0.20400
C337        C  0.50313709  0.27967068  0.24123546    -0.20400
C338        C  0.53230454  0.24917871  0.24075904    -0.20400
C339        C  0.42609537  0.34065255  0.16645008    -0.21400
C340        C  0.41620392  0.33147975  0.18580669    -0.21400
C341        C  0.09642973  0.17996591  0.16456598    -0.21400
C342        C  0.08739198  0.16988706  0.18390240    -0.21400
C343        C  0.49474215  0.34565714  0.14766491    -0.16800
C344        C  0.09465241  0.24278946  0.14612791    -0.16800
C345        C  0.06386941  0.20740804  0.21378654    -0.16800
C346        C  0.45968703  0.31404555  0.21529323    -0.16800
H347        H  0.06916847  0.36742106  0.12471484     0.16100
H348        H  0.12422465  0.30864621  0.12308346     0.16100
H349        H  0.49252791  0.29493204  0.25442886     0.16100
H350        H  0.54822559  0.23684119  0.25349039     0.16100
H351        H  0.40377127  0.34786824  0.15488774     0.14400
H352        H  0.38455401  0.33092357  0.19233489     0.14400
H353        H  0.10863301  0.16073627  0.15310475     0.14400
H354        H  0.09048166  0.14100219  0.19027217     0.14400
H355        H  0.02312801  0.27565679  0.16144201     0.27700
H356        H  0.00574784  0.25725464  0.19466317     0.27700
C357        C  0.18926178  0.18612026  0.06155053     0.14200
C358        C  0.15829507  0.21227526  0.06875142     0.01100
C359        C  0.14607980  0.24428886  0.05700355     0.16100
C360        C  0.16612224  0.25121267  0.03886008     0.25500
C361        C  0.19937410  0.22695372  0.03243891    -0.40800
C362        C  0.20991856  0.19355445  0.04346538     0.32600
C363        C  0.14213114  0.20957108  0.08930872     0.01200
F364        F  0.11661440  0.27030541  0.06366718    -0.13100
F365        F  0.24131130  0.16922294  0.03712130    -0.13600
C366        C  0.17066730  0.21426064  0.10524453     0.16100
C367        C  0.15517381  0.22222215  0.12430751     0.25500
C368        C  0.11113143  0.22549639  0.12755563    -0.40700
C369        C  0.08252318  0.21768414  0.11199669     0.32500
C370        C  0.09794387  0.20943136  0.09300149     0.14200
F371        F  0.21349687  0.21453389  0.10201644    -0.13100
F372        F  0.03971329  0.22075602  0.11495675    -0.13600
F373        F  0.18305509  0.22987845  0.13921911    -0.15900
F374        F  0.06985123  0.20389892  0.07792354    -0.14500
F375        F  0.20026648  0.15420407  0.07232610    -0.14500
F376        F  0.15427237  0.28255102  0.02784982    -0.15900
C377        C  0.25393340  0.34364470  0.05851818     0.14200
C378        C  0.28078987  0.32562979  0.07246203     0.01100
C379        C  0.29999599  0.28971873  0.06751036     0.16100
C380        C  0.29183154  0.27186308  0.04910168     0.25500
C381        C  0.26437193  0.28961606  0.03537724    -0.40800
C382        C  0.24595087  0.32586870  0.04013380     0.32600
C383        C  0.28559189  0.34320855  0.09257800     0.01200
F384        F  0.32657581  0.27197373  0.08051714    -0.13100
F385        F  0.21916079  0.34348458  0.02717739    -0.13600
C386        C  0.27032614  0.32297560  0.10938648     0.16100
C387        C  0.26527529  0.34256527  0.12755704     0.25500
C388        C  0.27554165  0.38257280  0.12913188    -0.40700
C389        C  0.29473248  0.40171924  0.11293445     0.32500
C390        C  0.29987743  0.38217751  0.09479945     0.14200
F391        F  0.25688789  0.28522278  0.10778623    -0.13100
F392        F  0.30541736  0.44027513  0.11430998    -0.13600
F393        F  0.24704608  0.32343971  0.14310191    -0.15900
F394        F  0.31653562  0.40196732  0.07908910    -0.14500
F395        F  0.23399211  0.37777697  0.06304871    -0.14500
F396        F  0.31063767  0.23718041  0.04464845    -0.15900
C397        C  0.33648299  0.28961744  0.89059081     0.14200
C398        C  0.35219770  0.30800235  0.90781372     0.01100
C399        C  0.39224585  0.32696014  0.90709871     0.16100
C400        C  0.41824783  0.32359883  0.89024834     0.25500
C401        C  0.40444151  0.30124205  0.87395587    -0.40800
C402        C  0.36249560  0.28630199  0.87375140     0.32600
C403        C  0.33066559  0.30124969  0.92716520     0.01200
F404        F  0.40751669  0.34589687  0.92335324    -0.13100
F405        F  0.34867903  0.26453294  0.85811577    -0.13600
C406        C  0.35288464  0.28181386  0.94233701     0.16100
C407        C  0.33219265  0.27161088  0.95997628     0.25500
C408        C  0.28873170  0.27976965  0.96259138    -0.40700
C409        C  0.26649099  0.29974642  0.94768837     0.32500
C410        C  0.28737925  0.31061825  0.93010341     0.14200
F411        F  0.39412189  0.27078106  0.93964900    -0.13100
F412        F  0.22446177  0.30821477  0.95011356    -0.13600
F413        F  0.35403043  0.25199454  0.97415993    -0.15900
F414        F  0.26529861  0.32984768  0.91588032    -0.14500
F415        F  0.29794869  0.27108209  0.89078493    -0.14500
F416        F  0.45830975  0.33907591  0.89050908    -0.15900
C417        C  0.25098194  0.15568993  0.89002467     0.14200
C418        C  0.21819257  0.15198678  0.90428235     0.01100
C419        C  0.18363406  0.12648748  0.90035222     0.16100
C420        C  0.18306769  0.10373344  0.88300430     0.25500
C421        C  0.21802890  0.10467323  0.86985470    -0.40800
C422        C  0.25130823  0.13169464  0.87317189     0.32600
C423        C  0.22209987  0.17219687  0.92381292     0.01200
F424        F  0.15223417  0.12119880  0.91403324    -0.13100
F425        F  0.28546051  0.13309248  0.86068898    -0.13600
C426        C  0.18887285  0.19561685  0.93138992     0.16100
C427        C  0.19339962  0.21474281  0.94973178     0.25500
C428        C  0.23135326  0.21113280  0.96061939    -0.40700
C429        C  0.26403900  0.18705529  0.95332462     0.32500
C430        C  0.25943790  0.16764195  0.93516684     0.14200
F431        F  0.15253507  0.20078116  0.92081273    -0.13100
F432        F  0.30038527  0.18211715  0.96393052    -0.13600
F433        F  0.16118816  0.23751350  0.95666676    -0.15900
F434        F  0.29129315  0.14378468  0.92882236    -0.14500
F435        F  0.28373201  0.18139692  0.89286611    -0.14500
F436        F  0.15034516  0.07812127  0.87992518    -0.15900
C437        C  0.05782776  0.14089904  0.91217908     0.14200
C438        C  0.04852672  0.10073721  0.91041322     0.01100
C439        C  0.54323946  0.08449431  0.89152425     0.16100
C440        C  0.54294529  0.10852600  0.87465464     0.25500
C441        C  0.04853015  0.14923067  0.87658882    -0.40800
C442        C  0.05862473  0.16483032  0.89538079     0.32600
C443        C  0.03770880  0.07795292  0.92844167     0.01200
F444        F  0.53451361  0.04564840  0.88955885    -0.13100
F445        F  0.06465537  0.20403594  0.89771052    -0.13600
C446        C  0.99827526  0.08443563  0.93786233     0.16100
C447        C  0.98767882  0.06469091  0.95535425     0.25500
C448        C  0.01619428  0.03778145  0.96374137    -0.40700
C449        C  0.55580027  0.03140601  0.95429294     0.32500
C450        C  0.56639403  0.05131883  0.93669435     0.14200
F451        F  0.97004580  0.11020651  0.93008993    -0.13100
F452        F  0.58390258  0.00551639  0.96202394    -0.13600
F453        F  0.94983899  0.07254092  0.96440170    -0.15900
F454        F  0.60466906  0.04469940  0.92779010    -0.14500
F455        F  0.06309166  0.15738546  0.93037840    -0.14500
F456        F  0.53284452  0.09256533  0.85679189    -0.15900
C457        C  0.38176531  0.97667349  0.94459435     0.14200
C458        C  0.40443761  0.95596510  0.92993668     0.01100
C459        C  0.43759130  0.43574159  0.93747822     0.16100
C460        C  0.45570662  0.45055009  0.95488109     0.25500
C461        C  0.44534992  0.97950223  0.96500411    -0.40800
C462        C  0.40209331  0.98829438  0.96206675     0.32600
C463        C  0.37724204  0.43379588  0.91308233     0.01200
F464        F  0.46182240  0.41346624  0.92513128    -0.13100
F465        F  0.38005168  0.00924199  0.97582916    -0.13600
C466        C  0.39884777  0.97032941  0.89404979     0.16100
C467        C  0.37533391  0.96987766  0.87655098     0.25500
C468        C  0.33396897  0.43420202  0.87679820    -0.40700
C469        C  0.31470835  0.41685444  0.89348260     0.32500
C470        C  0.33641198  0.41646918  0.91157300     0.14200
F471        F  0.43335855  0.99451764  0.89553182    -0.08300
F472        F  0.27318016  0.40520460  0.89284691    -0.13600
F473        F  0.38736938  0.99388379  0.86145590    -0.15900
F474        F  0.31610130  0.40266090  0.92798987    -0.14500
F475        F  0.34051150  0.98712001  0.94156730    -0.14500
F476        F  0.49696984  0.44202635  0.95916036    -0.15900
C477        C  0.06645729  0.06043063  0.06097940     0.14200
C478        C  0.07878262  0.02869258  0.07278047     0.01100
C479        C  0.06578592  0.49563173  0.06427859     0.16100
C480        C  0.04332966  0.48986300  0.04666977     0.25500
C481        C  0.04106139  0.01508417  0.03565138    -0.40800
C482        C  0.04764477  0.05369367  0.04249295     0.32600
C483        C  0.09765114  0.03516304  0.09249835     0.01200
F484        F  0.08495563  0.46460947  0.07304648    -0.13100
F485        F  0.03321031  0.08465712  0.03189736    -0.13600
C486        C  0.07737510  0.02006103  0.10951490     0.16100
C487        C  0.09917223  0.01884014  0.12751941     0.25500
C488        C  0.14180169  0.03155379  0.12845500    -0.40700
C489        C  0.15554827  0.53983971  0.11072713     0.32500
C490        C  0.13348323  0.54417794  0.09290429     0.14200
F491        F  0.03775290  0.00390033  0.10833570    -0.13100
F492        F  0.19881099  0.54318089  0.11079464    -0.13600
F493        F  0.08044666  0.00141521  0.14345563    -0.15900
F494        F  0.15561335  0.55184118  0.07597079    -0.14500
F495        F  0.07100138  0.09775433  0.06774517    -0.14500
F496        F  0.04108710  0.45334104  0.03865490    -0.15900
C497        C  0.43044500  0.41005067  0.05943130     0.14200
C498        C  0.43819334  0.42994610  0.07742378     0.01100
C499        C  0.94197299  0.47118675  0.07690087     0.16100
C500        C  0.94228596  0.49106107  0.05874076     0.25500
C501        C  0.44393445  0.46993248  0.04076968    -0.40800
C502        C  0.43594987  0.42922296  0.04133817     0.32600
C503        C  0.44864104  0.40712017  0.09569191     0.01200
F504        F  0.94874313  0.49227621  0.09368726    -0.13100
F505        F  0.43657653  0.40715703  0.02454416    -0.13600
C506        C  0.47485381  0.37379765  0.09405433     0.16100
C507        C  0.48555888  0.35208641  0.11070396     0.25500
C508        C  0.47655135  0.36620874  0.12993307    -0.40700
C509        C  0.45122744  0.40013835  0.13175840     0.32500
C510        C  0.43540072  0.41895830  0.11482292     0.14200
F511        F  0.49203302  0.36277526  0.07637408    -0.13100
F512        F  0.44237798  0.41569978  0.14986041    -0.13600
F513        F  0.50579436  0.31741021  0.10784374    -0.15900
F514        F  0.40727050  0.44870188  0.11725653    -0.14500
F515        F  0.42064175  0.37119285  0.05927435    -0.14500
F516        F  0.94329570  0.53081596  0.05880924    -0.15900
C517        C  0.38694740  0.30594946  0.55434892     0.14200
C518        C  0.41294254  0.31228260  0.57110049     0.01100
C519        C  0.45760424  0.31379369  0.56856611     0.16100
C520        C  0.47596641  0.30507811  0.55013321     0.25500
C521        C  0.44994157  0.29531833  0.53390238    -0.40800
C522        C  0.40537054  0.29859710  0.53578746     0.32600
C523        C  0.39383771  0.31284395  0.59133780     0.01200
F524        F  0.48350803  0.32179554  0.58419326    -0.13100
F525        F  0.37956958  0.29008995  0.52017993    -0.13600
C526        C  0.40811076  0.28619848  0.60575258     0.16100
C527        C  0.38653527  0.28251732  0.62383130     0.25500
C528        C  0.35070353  0.30574719  0.62799803    -0.40700
C529        C  0.33822492  0.33427074  0.61427653     0.32500
C530        C  0.35888187  0.33705443  0.59588232     0.14200
F531        F  0.44062876  0.26123180  0.60170061    -0.13100
F532        F  0.30351516  0.35683675  0.61798870    -0.13600
F533        F  0.39864592  0.25412362  0.63668220    -0.15900
F534        F  0.34295479  0.36158086  0.58204520    -0.14500
F535        F  0.34381541  0.30322025  0.55620990    -0.14500
F536        F  0.51917210  0.30411368  0.54834396    -0.15900
C537        C  0.08601575  0.24327281  0.43906472     0.14200
C538        C  0.07572703  0.20817173  0.42914320     0.01100
C539        C  0.04260825  0.18433567  0.43662673     0.16100
C540        C  0.02001462  0.19558912  0.45377540     0.25500
C541        C  0.02974269  0.23118914  0.46339919    -0.40800
C542        C  0.06324687  0.25466988  0.45600061     0.32600
C543        C  0.09900550  0.19783569  0.41063269     0.01200
F544        F  0.03222093  0.15027871  0.42731027    -0.13100
F545        F  0.07398365  0.28871673  0.46526414    -0.13600
C546        C  0.14270743  0.18878526  0.41132408     0.16100
C547        C  0.16727927  0.18857415  0.39390253     0.25500
C548        C  0.14852603  0.19767453  0.37553693    -0.40700
C549        C  0.10400963  0.20252310  0.37461931     0.32500
C550        C  0.07945564  0.20301390  0.39208656     0.14200
F551        F  0.16224850  0.18355528  0.42906269    -0.13100
F552        F  0.08523604  0.21163981  0.35712468    -0.13600
F553        F  0.21026534  0.18419052  0.39522758    -0.15900
F554        F  0.03753602  0.21276124  0.39108587    -0.14500
F555        F  0.11764289  0.26698480  0.43205121    -0.14500
F556        F  0.98804242  0.17225862  0.46072991    -0.15900
C557        C  0.95346526  0.34843671  0.39001442     0.14200
C558        C  0.43885428  0.36364396  0.40852966     0.01100
C559        C  0.42252542  0.40196588  0.40943443     0.16100
C560        C  0.42464437  0.42623722  0.39276862     0.25500
C561        C  0.44257735  0.41227956  0.37499669    -0.40800
C562        C  0.95495085  0.37287914  0.37341683     0.32600
C563        C  0.44818876  0.34196116  0.42701639     0.01200
F564        F  0.40767388  0.41677613  0.42685219    -0.13100
F565        F  0.97280642  0.35941266  0.35633707    -0.13600
C566        C  0.97535136  0.35831928  0.44118311     0.16100
C567        C  0.98630128  0.33763577  0.45823048     0.25500
C568        C  0.97100337  0.29934726  0.46116996    -0.40700
C569        C  0.44466563  0.28261798  0.44694631     0.32500
C570        C  0.43313223  0.30346016  0.42992371     0.14200
F571        F  0.99185733  0.39484261  0.43846468    -0.13100
F572        F  0.42892649  0.24585457  0.44972492    -0.13600
F573        F  0.01223018  0.35484462  0.47186394    -0.15900
F574        F  0.40681227  0.28633705  0.41642808    -0.14500
F575        F  0.97024515  0.31192546  0.38863673    -0.14500
F576        F  0.41295648  0.46436027  0.39442758    -0.15900
C577        C  0.21728056  0.07106401  0.43134211     0.14200
C578        C  0.18334702  0.04793258  0.42419083     0.01100
C579        C  0.15946951  0.52206868  0.43734185     0.16100
C580        C  0.18084677  0.51104162  0.45457984     0.25500
C581        C  0.22294525  0.02901531  0.46044735    -0.40800
C582        C  0.23677734  0.06185118  0.44949371     0.32600
C583        C  0.16216852  0.05625479  0.40509817     0.01200
F584        F  0.12512287  0.50066330  0.43130266    -0.13100
F585        F  0.26994641  0.08411825  0.45605939    -0.13600
C586        C  0.16723422  0.55537402  0.38907604     0.16100
C587        C  0.14052052  0.55294696  0.37243185     0.25500
C588        C  0.10830292  0.05061424  0.37188821    -0.40700
C589        C  0.09554578  0.07225506  0.38862415     0.32500
C590        C  0.12251075  0.07529759  0.40509882     0.14200
F591        F  0.20874404  0.54456846  0.38729883    -0.13100
F592        F  0.05550957  0.08718123  0.38969924    -0.13600
F593        F  0.15668239  0.53954075  0.35497653    -0.15900
F594        F  0.10838672  0.09368898  0.42173888    -0.14500
F595        F  0.23163677  0.10220262  0.42068407    -0.14500
F596        F  0.16627480  0.47956889  0.46493693    -0.15900
C597        C  0.31010064  0.35901718  0.40810090     0.14200
C598        C  0.29376363  0.39724478  0.40749682     0.01100
C599        C  0.28045887  0.41299957  0.38930182     0.16100
C600        C  0.27930847  0.38933563  0.37237038     0.25500
C601        C  0.29150997  0.34992198  0.37355930    -0.40800
C602        C  0.30887003  0.33541684  0.39119825     0.32600
C603        C  0.28541312  0.41854320  0.42614997     0.01200
F604        F  0.26471695  0.44994395  0.38836247    -0.13100
F605        F  0.32070486  0.29729439  0.39247890    -0.13600
C606        C  0.30342277  0.45569172  0.42948161     0.16100
C607        C  0.29437908  0.47593808  0.44699677     0.25500
C608        C  0.26710091  0.45935182  0.46139395    -0.40700
C609        C  0.24921156  0.42210574  0.45811272     0.32500
C610        C  0.25793720  0.40199920  0.44049629     0.14200
F611        F  0.33012186  0.47210711  0.41587874    -0.13100
F612        F  0.22263172  0.40565609  0.47176207    -0.13600
F613        F  0.31287065  0.51152966  0.45009846    -0.15900
F614        F  0.23870722  0.36678089  0.43717703    -0.14500
F615        F  0.32432373  0.34371719  0.42541743    -0.14500
F616        F  0.26200273  0.40351447  0.35542037    -0.15900
C617        C  0.21877909  0.10417409  0.60158006     0.14200
C618        C  0.25436564  0.11100482  0.58898004     0.01100
C619        C  0.28699054  0.13623182  0.59573553     0.16100
C620        C  0.28416330  0.15404315  0.61434346     0.25500
C621        C  0.24702890  0.14994643  0.62614699    -0.40800
C622        C  0.21458264  0.12437996  0.61969505     0.32600
C623        C  0.25720790  0.09284579  0.56873416     0.01200
F624        F  0.32064431  0.14578064  0.58387421    -0.13100
F625        F  0.17795290  0.12045878  0.63038008    -0.13600
C626        C  0.22160672  0.09244768  0.55596369     0.16100
C627        C  0.22317897  0.07246554  0.53777091     0.25500
C628        C  0.26114298  0.05420242  0.53141389    -0.40700
C629        C  0.29819128  0.05921815  0.54291065     0.32500
C630        C  0.29574907  0.07628689  0.56179809     0.14200
F631        F  0.18496949  0.11103159  0.56114680    -0.13100
F632        F  0.33605280  0.04438749  0.53659332    -0.13600
F633        F  0.18683895  0.06912151  0.52694067    -0.15900
F634        F  0.33052498  0.07425415  0.57371483    -0.14500
F635        F  0.18761229  0.07840305  0.59626137    -0.14500
F636        F  0.31679373  0.17776472  0.62027437    -0.15900
C637        C  0.45904265  0.19404554  0.56596921     0.14200
C638        C  0.99790558  0.17995388  0.57335403     0.01100
C639        C  0.03472191  0.18484272  0.56134889     0.16100
C640        C  0.03248969  0.20456906  0.54309354     0.25500
C641        C  0.99300235  0.21747460  0.53571910    -0.40800
C642        C  0.45634153  0.20993835  0.54695011     0.32600
C643        C  0.99945142  0.15825913  0.59274351     0.01200
F644        F  0.07278396  0.16964914  0.56691744    -0.13100
F645        F  0.41708546  0.21731404  0.53943887    -0.13600
C646        C  0.46759874  0.13088681  0.59745515     0.16100
C647        C  0.46847034  0.11029988  0.61527912     0.25500
C648        C  0.00367432  0.11267512  0.62802394    -0.40700
C649        C  0.03593650  0.14027956  0.62358078     0.32500
C650        C  0.03302946  0.16386171  0.60650647     0.14200
F651        F  0.43638849  0.12161797  0.58427969    -0.13100
F652        F  0.07110386  0.14331784  0.63521705    -0.13600
F653        F  0.43579887  0.08511242  0.61937099    -0.15900
F654        F  0.06341523  0.19176506  0.60337799    -0.14500
F655        F  0.42292463  0.19260981  0.57718508    -0.14500
F656        F  0.06903183  0.21107742  0.53265273    -0.15900
C657        C  0.40530156  0.93120490  0.58815224     0.14200
C658        C  0.36426513  0.44106405  0.58810482     0.01100
C659        C  0.34582734  0.44343533  0.60734742     0.16100
C660        C  0.37162476  0.44617854  0.62424739     0.25500
C661        C  0.41564464  0.43837699  0.62310301    -0.40800
C662        C  0.42881475  0.92733502  0.60564011     0.32600
C663        C  0.33783781  0.44888907  0.56950760     0.01200
F664        F  0.30291989  0.44275861  0.61017756    -0.13100
F665        F  0.46914906  0.91292494  0.60475053    -0.13600
C666        C  0.34911834  0.43365734  0.55059469     0.16100
C667        C  0.32945829  0.44729262  0.53324150     0.25500
C668        C  0.29242430  0.47077715  0.53415870    -0.40700
C669        C  0.27450820  0.97714765  0.55306505     0.32500
C670        C  0.29823717  0.97121889  0.57032011     0.14200
F671        F  0.37840867  0.40487029  0.54846014    -0.13100
F672        F  0.23540705  0.99379661  0.55470757    -0.13600
F673        F  0.34762148  0.43761082  0.51559593    -0.15900
F674        F  0.28660712  0.99238148  0.58649199    -0.14500
F675        F  0.42768439  0.92944583  0.57094256    -0.14500
F676        F  0.35343627  0.45787918  0.64157863    -0.15900
In677      In  0.37597659  0.87307309  0.25164656     1.36900
C678        C  0.32515281  0.82703102  0.27407985     0.79100
O679        O  0.33682184  0.92788486  0.24534046    -0.59300
O680        O  0.32976585  0.87870666  0.22650915    -0.50300
C681        C  0.42740551  0.91874664  0.27404338     0.71800
O682        O  0.41478402  0.88493906  0.27895377    -0.45100
C683        C  0.43150739  0.83375347  0.22856866     0.76500
O684        O  0.33318637  0.86255909  0.27786589    -0.57000
O685        O  0.41532896  0.86623717  0.22409592    -0.47100
O686        O  0.34100343  0.81524808  0.25794392    -0.53400
C687        C  0.32031545  0.91402060  0.22981264     0.86600
O688        O  0.41614556  0.92846464  0.25684721    -0.55300
O689        O  0.42087403  0.82180742  0.24555017    -0.58600
N690        N  0.99541314  0.00275753  0.70685437    -0.35100
N691        N  0.45821600  0.95429855  0.67542370    -0.55700
N692        N  0.48074890  0.51232216  0.64845807    -0.35100
N693        N  0.02101917  0.56044953  0.67829811    -0.55700
C694        C  0.48574704  0.96966767  0.71702787     0.28500
C695        C  0.02477650  0.52154499  0.71794911     0.28500
C696        C  0.47406385  0.48209305  0.63579814     0.28500
C697        C  0.50196001  0.54048634  0.63832225     0.28500
C698        C  0.44058139  0.93651630  0.69144819     0.37100
C699        C  0.43508924  0.94255327  0.65945791     0.37100
C700        C  0.02963490  0.57909234  0.69548368     0.37100
C701        C  0.01269093  0.58829278  0.66464140     0.37100
C702        C  0.00899207  0.96893270  0.73440650    -0.20400
C703        C  0.03380140  0.00260389  0.73469904    -0.20400
C704        C  0.49273935  0.49125607  0.61755882    -0.20400
C705        C  0.51069265  0.52776926  0.61930081    -0.20400
C706        C  0.40676014  0.91281966  0.68545853    -0.21400
C707        C  0.40401772  0.91586648  0.66524941    -0.21400
C708        C  0.02734600  0.61939230  0.69260788    -0.21400
C709        C  0.01566271  0.62511082  0.67313262    -0.21400
C710        C  0.45508508  0.94071549  0.71131481    -0.16800
C711        C  0.04159229  0.55950187  0.71312122    -0.16800
C712        C  0.00516509  0.57960235  0.64449821    -0.16800
C713        C  0.44202356  0.95559266  0.63972962    -0.16800
H714        H  0.00804253  0.94668703  0.74581917     0.16100
H715        H  0.05453701  0.01125900  0.74674711     0.16100
H716        H  0.49250683  0.47526177  0.60381166     0.16100
H717        H  0.52561770  0.54436765  0.60745314     0.16100
H718        H  0.38529480  0.89574266  0.69459056     0.14400
H719        H  0.38108298  0.90063274  0.65600985     0.14400
H720        H  0.03176847  0.64256190  0.70336903     0.14400
H721        H  0.01035507  0.65310635  0.66610008     0.14400
H722        H  0.48079439  0.51002294  0.69423548     0.27700
H723        H  0.46446734  0.51692992  0.66176840     0.27700
C724        C  0.25723047  0.52769350  0.51443631     0.03800
C725        C  0.27297542  0.48831409  0.51555503     0.03800
C726        C  0.27536259  0.96367527  0.49823405    -0.16800
C727        C  0.26360158  0.97892711  0.47984837     0.03800
C728        C  0.24520322  0.01641069  0.47882492     0.03800
C729        C  0.24013473  0.54174083  0.49646586    -0.16800
H730        H  0.22676849  0.57094844  0.49586458     0.05800
H731        H  0.28561173  0.93348602  0.49875882     0.05800
N732        N  0.01848004  0.98748927  0.35327142    -0.35100
N733        N  0.05171334  0.53967411  0.32387467    -0.55700
N734        N  0.49876574  0.50204482  0.29333067    -0.35100
N735        N  0.46779805  0.94829098  0.32352771    -0.55700
C736        C  0.05395676  0.00082088  0.36249438     0.28500
C737        C  0.00520779  0.95527267  0.36314593     0.28500
C738        C  0.02844669  0.52058817  0.28214776     0.28500
C739        C  0.48232971  0.97258489  0.28145314     0.28500
C740        C  0.06373001  0.55973879  0.34032142     0.37100
C741        C  0.05817615  0.56408900  0.30838278     0.37100
C742        C  0.44799180  0.93599157  0.34030367     0.37100
C743        C  0.44043221  0.94096501  0.30852334     0.37100
C744        C  0.06322826  0.97690500  0.37850938    -0.20400
C745        C  0.03236721  0.94807135  0.37891854    -0.20400
C746        C  0.52932790  0.50291784  0.26330960    -0.20400
C747        C  0.49933864  0.47288412  0.26361199    -0.20400
C748        C  0.07686844  0.59714304  0.33541289    -0.21400
C749        C  0.07360425  0.59995561  0.31513491    -0.21400
C750        C  0.40775997  0.92147645  0.33610704    -0.21400
C751        C  0.40281871  0.92465546  0.31594527    -0.21400
C752        C  0.06644343  0.54316562  0.35938159    -0.16800
C753        C  0.46773191  0.93453592  0.35898856    -0.16800
C754        C  0.45081803  0.94511954  0.28815793    -0.16800
C755        C  0.05398287  0.55314066  0.28818718    -0.16800
H756        H  0.08899346  0.98025685  0.38905325     0.16100
H757        H  0.02993003  0.92478610  0.38974780     0.16100
H758        H  0.54959541  0.51073057  0.25086705     0.16100
H759        H  0.49223150  0.45324897  0.25141086     0.16100
H760        H  0.08678610  0.62004814  0.34551479     0.14400
H761        H  0.08141714  0.62555591  0.30637582     0.14400
H762        H  0.38454440  0.91001712  0.34653822     0.14400
H763        H  0.37467549  0.91593833  0.30772151     0.14400
H764        H  0.00140388  0.00206408  0.34234301     0.27700
H765        H  0.99160326  0.00843893  0.30722289     0.27700
C766        C  0.98487526  0.73251406  0.51673974     0.03800
C767        C  0.46375396  0.76913341  0.51538424     0.03800
C768        C  0.46057728  0.78789322  0.49703162    -0.16800
C769        C  0.97961861  0.77204188  0.48006037     0.03800
C770        C  0.00258921  0.73662236  0.48130666     0.03800
C771        C  0.00439167  0.71683159  0.49957814    -0.16800
H772        H  0.02150380  0.68938602  0.50047955     0.05800
H773        H  0.44376203  0.81551688  0.49606017     0.05800
N774        N  0.26474746  0.74215903  0.65007431    -0.35100
N775        N  0.30475150  0.79070264  0.67908884    -0.55700
N776        N  0.26935073  0.73751630  0.70960392    -0.35100
N777        N  0.22675880  0.69091360  0.67806873    -0.55700
C778        C  0.27570569  0.77370891  0.63920623     0.28500
C779        C  0.23831096  0.71998279  0.63899442     0.28500
C780        C  0.28352350  0.76848465  0.72057151     0.28500
C781        C  0.23781981  0.71883421  0.71995773     0.28500
C782        C  0.32768524  0.80049199  0.66273925     0.37100
C783        C  0.32988726  0.79868819  0.69479589     0.37100
C784        C  0.22884243  0.66635778  0.66226446     0.37100
C785        C  0.22220234  0.66841354  0.69431295     0.37100
C786        C  0.25398991  0.77266138  0.62127429    -0.20400
C787        C  0.23016256  0.73860204  0.62118425    -0.20400
C788        C  0.26123722  0.76930741  0.73834891    -0.20400
C789        C  0.23217220  0.73840538  0.73790236    -0.20400
C790        C  0.36724987  0.81536290  0.66803057    -0.21400
C791        C  0.36871196  0.81413759  0.68838996    -0.21400
C792        C  0.22562919  0.62782515  0.66846398    -0.21400
C793        C  0.22055851  0.62914951  0.68880600    -0.21400
C794        C  0.31268443  0.79593451  0.64316736    -0.16800
C795        C  0.23258061  0.67974559  0.64251829    -0.16800
C796        C  0.21636301  0.68355747  0.71371587    -0.16800
C797        C  0.31665301  0.79514972  0.71478826    -0.16800
H798        H  0.25776143  0.79225060  0.60880911     0.16100
H799        H  0.21255307  0.72685095  0.60869228     0.16100
H800        H  0.26499870  0.79033464  0.75027992     0.16100
H801        H  0.20965438  0.73155589  0.74959605     0.16100
H802        H  0.39248885  0.82558138  0.65827294     0.14400
H803        H  0.39555501  0.82306651  0.69743641     0.14400
H804        H  0.22655939  0.60161906  0.65940612     0.14400
H805        H  0.21709541  0.60405521  0.69848104     0.14400
H806        H  0.28224085  0.73155552  0.66200491     0.27700
H807        H  0.28298310  0.72791367  0.69635647     0.27700
N808        N  0.23018872  0.76426040  0.35369853    -0.35100
N809        N  0.28301174  0.80097864  0.32360080    -0.55700
N810        N  0.25099607  0.74632136  0.29386161    -0.35100
N811        N  0.19361921  0.71291007  0.32450534    -0.55700
C812        C  0.24229202  0.79776762  0.36278643     0.28500
C813        C  0.19537420  0.75075600  0.36346583     0.28500
C814        C  0.27026029  0.77368547  0.28214663     0.28500
C815        C  0.22266237  0.72596391  0.28257071     0.28500
C816        C  0.30122271  0.81569462  0.34018184     0.37100
C817        C  0.31103169  0.80758287  0.30872772     0.37100
C818        C  0.17981812  0.69514363  0.34134698     0.37100
C819        C  0.18919220  0.68642953  0.30970774     0.37100
C820        C  0.21476489  0.80584992  0.37844517    -0.20400
C821        C  0.18506926  0.77605929  0.37888475    -0.20400
C822        C  0.25463227  0.77002410  0.26301117    -0.20400
C823        C  0.22467335  0.74000230  0.26326953    -0.20400
C824        C  0.34117299  0.83109013  0.33602363    -0.21400
C825        C  0.34750958  0.82597488  0.31602588    -0.21400
C826        C  0.16749174  0.65703409  0.33740409    -0.21400
C827        C  0.17301744  0.65150138  0.31729862    -0.21400
C828        C  0.28004100  0.81876334  0.35849048    -0.16800
C829        C  0.17534102  0.71440310  0.35979030    -0.16800
C830        C  0.19588373  0.69465998  0.28929209    -0.16800
C831        C  0.30179718  0.80134508  0.28846823    -0.16800
H832        H  0.21650361  0.83014774  0.38878483     0.16100
H833        H  0.15941731  0.77297327  0.38960119     0.16100
H834        H  0.26335375  0.78745897  0.25021995     0.16100
H835        H  0.20608945  0.73014993  0.25068262     0.16100
H836        H  0.36315024  0.84465113  0.34633893     0.14400
H837        H  0.37559943  0.83507350  0.30778745     0.14400
H838        H  0.15646920  0.63552513  0.34802201     0.14400
H839        H  0.16625624  0.62473711  0.30920932     0.14400
H840        H  0.24802891  0.74885346  0.34322621     0.27700
H841        H  0.25884110  0.73992965  0.30847738     0.27700
C842        C  0.47556900  0.98529428  0.01906124     0.03800
C843        C  0.99439177  0.51371406  0.02031922     0.03800
C844        C  0.00730085  0.52854797  0.00174533    -0.16800
C845        C  0.48568517  0.51794076  0.98438441     0.03800
C846        C  0.45106426  0.49126807  0.98568556     0.03800
C847        C  0.45272537  0.97856936  0.00148992    -0.16800
H848        H  0.42347236  0.96142322  0.00189276     0.05800
H849        H  0.03471252  0.54807210  0.00082978     0.05800
N850        N  0.26508991  0.50225190  0.79269742    -0.35100
N851        N  0.22920167  0.55733577  0.82234993    -0.55700
N852        N  0.26321667  0.51053915  0.85425604    -0.35100
N853        N  0.30076008  0.95750205  0.82237732    -0.55700
C854        C  0.23676733  0.52162463  0.78109598     0.28500
C855        C  0.28106800  0.97162995  0.77969943     0.28500
C856        C  0.25400316  0.54370857  0.86460359     0.28500
C857        C  0.28667566  0.48753482  0.86631029     0.28500
C858        C  0.21664523  0.57466915  0.80537110     0.37100
C859        C  0.22448818  0.58416469  0.83705830     0.37100
C860        C  0.32210768  0.94025035  0.80721549     0.37100
C861        C  0.31924681  0.94480513  0.83931762     0.37100
C862        C  0.23286063  0.00115622  0.76055274    -0.20400
C863        C  0.26186388  0.97052169  0.76118586    -0.20400
C864        C  0.26993920  0.54061265  0.88369754    -0.20400
C865        C  0.29050290  0.50555387  0.88476289    -0.20400
C866        C  0.20467983  0.61306705  0.80937507    -0.21400
C867        C  0.20935409  0.61892878  0.82939471    -0.21400
C868        C  0.35253842  0.91490528  0.81481987    -0.21400
C869        C  0.35102851  0.91823062  0.83503125    -0.21400
C870        C  0.21349768  0.55610506  0.78646991    -0.16800
C871        C  0.31292666  0.94502187  0.78668891    -0.16800
C872        C  0.30780070  0.95625770  0.85876896    -0.16800
C873        C  0.23456310  0.57822643  0.85726684    -0.16800
H874        H  0.21593586  0.51099403  0.75007272     0.16100
H875        H  0.26750901  0.94950535  0.74943243     0.16100
H876        H  0.26875924  0.56213967  0.89551179     0.16100
H877        H  0.30793776  0.49559731  0.89759136     0.16100
H878        H  0.19418743  0.63496420  0.79891857     0.14400
H879        H  0.20279384  0.64585606  0.83734134     0.14400
H880        H  0.37315212  0.89511783  0.80685202     0.14400
H881        H  0.37039216  0.90226902  0.84546163     0.14400
H882        H  0.27546395  0.51109840  0.80663058     0.27700
H883        H  0.25345586  0.50322627  0.84003174     0.27700
N884        N  0.48911286  0.72575988  0.85380867    -0.35100
N885        N  0.03449973  0.68253335  0.82360778    -0.55700
N886        N  0.01268423  0.74321634  0.79406699    -0.35100
N887        N  0.46250873  0.78274849  0.82457908    -0.55700
C888        C  0.49494951  0.69129874  0.86327370     0.28500
C889        C  0.45877477  0.74544402  0.86401605     0.28500
C890        C  0.02961966  0.71477151  0.78235624     0.28500
C891        C  0.48684917  0.76590797  0.78262925     0.28500
C892        C  0.04673784  0.66202411  0.83982704     0.37100
C893        C  0.06143341  0.67239670  0.80875461     0.37100
C894        C  0.45138353  0.80203571  0.84135205     0.37100
C895        C  0.45996299  0.80897178  0.80968409     0.37100
C896        C  0.46822132  0.68919937  0.87970173    -0.20400
C897        C  0.44558298  0.72340463  0.88024308    -0.20400
C898        C  0.01525321  0.71988156  0.76310155    -0.20400
C899        C  0.98811696  0.75178855  0.76329588    -0.20400
C900        C  0.08124019  0.63856745  0.83532063    -0.21400
C901        C  0.09080273  0.64535545  0.81573442    -0.21400
C902        C  0.44232357  0.84075283  0.83723401    -0.21400
C903        C  0.44797285  0.84524315  0.81714195    -0.21400
C904        C  0.02587011  0.66304357  0.85842163    -0.16800
C905        C  0.44476976  0.78381845  0.85980820    -0.16800
C906        C  0.46334208  0.79934065  0.78931161    -0.16800
C907        C  0.05771739  0.68448870  0.78865194    -0.16800
H908        H  0.46576905  0.66576140  0.89044578     0.16100
H909        H  0.42251279  0.73120025  0.89155548     0.16100
H910        H  0.02274240  0.70192800  0.75029778     0.16100
H911        H  0.97110442  0.76301640  0.75061088     0.16100
H912        H  0.09780940  0.61874921  0.84511773     0.14400
H913        H  0.11634323  0.63153238  0.80758710     0.14400
H914        H  0.43236421  0.86314695  0.84762175     0.14400
H915        H  0.44364238  0.87206425  0.80890168     0.14400
H916        H  0.50812199  0.73722420  0.84258784     0.27700
H917        H  0.52083692  0.74831648  0.80873708     0.27700
In918      In  0.12593783  0.62435850  0.25003276     1.36900
C919        C  0.16713809  0.57176505  0.22690922     0.79100
O920        O  0.18673834  0.65715399  0.25879167    -0.59300
O921        O  0.13266901  0.66127372  0.27754830    -0.50300
C922        C  0.08803838  0.67962150  0.22717686     0.71800
O923        O  0.12496056  0.66626969  0.22415883    -0.45100
C924        C  0.07962878  0.57609952  0.27345526     0.76500
O925        O  0.12876128  0.58171000  0.22446420    -0.57000
O926        O  0.11801022  0.58546235  0.27663892    -0.47100
O927        O  0.18461432  0.58797963  0.24164298    -0.53400
C928        C  0.17122778  0.67062046  0.27469535     0.86600
O929        O  0.07013136  0.66520533  0.24229989    -0.55300
O930        O  0.06486987  0.58990469  0.25755442    -0.58600
N931        N  0.22665470  0.97010109  0.15016794    -0.35100
N932        N  0.18101233  0.51966482  0.17906586    -0.55700
N933        N  0.24215878  0.49135824  0.20835255    -0.35100
N934        N  0.27844966  0.93531508  0.17986491    -0.55700
C935        C  0.19102495  0.98144824  0.14070245     0.28500
C936        C  0.24135744  0.93815135  0.14053714     0.28500
C937        C  0.21656862  0.51420149  0.21985706     0.28500
C938        C  0.26414471  0.96523606  0.22150782     0.28500
C939        C  0.16517866  0.53444964  0.16203023     0.37100
C940        C  0.18025146  0.54908723  0.19247354     0.37100
C941        C  0.29937541  0.92296874  0.16337398     0.37100
C942        C  0.30588548  0.93105578  0.19506009     0.37100
C943        C  0.18269723  0.95614966  0.12496583    -0.20400
C944        C  0.21458701  0.92871513  0.12488046    -0.20400
C945        C  0.22154377  0.50348603  0.23953960    -0.20400
C946        C  0.25056773  0.47303228  0.23986939    -0.20400
C947        C  0.15442926  0.57342099  0.16452726    -0.21400
C948        C  0.16430515  0.58276068  0.18383778    -0.21400
C949        C  0.34016001  0.91132856  0.16797678    -0.21400
C950        C  0.34438161  0.91613155  0.18810288    -0.21400
C951        C  0.15799036  0.51214251  0.14474527    -0.16800
C952        C  0.28066616  0.92011847  0.14448547    -0.16800
C953        C  0.29558505  0.93757370  0.21526767    -0.16800
C954        C  0.18953672  0.54464419  0.21284663    -0.16800
H955        H  0.15714437  0.95797731  0.11424299     0.16100
H956        H  0.21826267  0.90516460  0.11421810     0.16100
H957        H  0.20555912  0.51586537  0.25234531     0.16100
H958        H  0.26100355  0.45767870  0.25298806     0.16100
H959        H  0.14079439  0.59288454  0.15363395     0.14400
H960        H  0.16065348  0.61110213  0.19079818     0.14400
H961        H  0.36417448  0.90106837  0.15776435     0.14400
H962        H  0.37278281  0.90994907  0.19659671     0.14400
H963        H  0.24339694  0.98653499  0.16064248     0.27700
H964        H  0.25222915  0.99671002  0.19477114     0.27700
C965        C  0.29851513  0.76064572  0.98471385     0.03800
C966        C  0.26762955  0.73030604  0.98313146     0.03800
C967        C  0.24566516  0.71816588  0.00027331    -0.16800
C968        C  0.25426368  0.73577494  0.01871967     0.03800
C969        C  0.28539370  0.76583423  0.02020176     0.03800
C970        C  0.30759289  0.77758969  0.00319306    -0.16800
H971        H  0.33071785  0.80133509  0.00417599     0.05800
H972        H  0.22159511  0.69525459  0.99924262     0.05800
In973      In  0.13110302  0.61814333  0.74917003     1.36900
C974        C  0.18575875  0.66141218  0.72689576     0.79100
O975        O  0.08304945  0.62477648  0.77366443    -0.59300
O976        O  0.10632168  0.67702748  0.76056176    -0.50300
C977        C  0.07305620  0.57955681  0.72656466     0.71800
O978        O  0.07258807  0.61582054  0.72990257    -0.45100
C979        C  0.18328611  0.57482831  0.77215975     0.76500
O980        O  0.15849676  0.63765502  0.71995503    -0.57000
O981        O  0.14862287  0.58956895  0.77789733    -0.47100
O982        O  0.18439288  0.66401084  0.74556875    -0.53400
C983        C  0.08248326  0.66169539  0.77361133     0.86600
O984        O  0.10385099  0.56240102  0.73482357    -0.55300
O985        O  0.19039422  0.57973545  0.75391266    -0.58600
In986      In  0.38809924  0.86949444  0.75159537     1.36900
C987        C  0.43551322  0.91441556  0.72671533     0.79100
O988        O  0.32288428  0.89561212  0.76057478    -0.59300
O989        O  0.37882907  0.91933003  0.77322494    -0.50300
C990        C  0.33826177  0.82199729  0.72926672     0.71800
O991        O  0.34791178  0.85684405  0.72481080    -0.45100
C992        C  0.43748505  0.82386693  0.77530313     0.76500
O993        O  0.42222076  0.92660180  0.74326771    -0.57000
O994        O  0.40109147  0.83662560  0.77995959    -0.47100
O995        O  0.42747858  0.87862334  0.72368665    -0.53400
C996        C  0.33856292  0.92012717  0.77261298     0.86600
O997        O  0.35174553  0.81168861  0.74605063    -0.55300
O998        O  0.44942388  0.83454513  0.75826854    -0.58600
N999        N  0.04553546  0.79455378  0.15298281    -0.35100
N1000       N  0.48376598  0.82169620  0.18042041    -0.55700
N1001       N  0.51342223  0.76048134  0.20893221    -0.35100
N1002       N  0.07905944  0.73763435  0.18072042    -0.55700
C1003       C  0.03176274  0.82770412  0.14430375     0.28500
C1004       C  0.08365700  0.78587967  0.14485480     0.28500
C1005       C  0.49158002  0.78547834  0.22088896     0.28500
C1006       C  0.04000911  0.73864479  0.22055836     0.28500
C1007       C  0.46536193  0.83322686  0.16325453     0.37100
C1008       C  0.45225371  0.81905674  0.19400057     0.37100
C1009       C  0.09587002  0.72491446  0.16336902     0.37100
C1010       C  0.07910260  0.70663618  0.19312667     0.37100
C1011       C  0.06237523  0.84133887  0.13103437    -0.20400
C1012       C  0.09510720  0.81456560  0.13122259    -0.20400
C1013       C  0.50402584  0.77920922  0.24038224    -0.20400
C1014       C  0.53405206  0.74950186  0.24009538    -0.20400
C1015       C  0.42180580  0.83709246  0.16577637    -0.21400
C1016       C  0.41349301  0.82894792  0.18544120    -0.21400
C1017       C  0.10669376  0.68575781  0.16466713    -0.21400
C1018       C  0.09559802  0.67407280  0.18351594    -0.21400
C1019       C  0.48885403  0.84122525  0.14580020    -0.16800
C1020       C  0.10334556  0.74919911  0.14685883    -0.16800
C1021       C  0.06774377  0.70866321  0.21343764    -0.16800
C1022       C  0.45920850  0.81176697  0.21436432    -0.16800
H1023       H  0.06004673  0.86643570  0.12131525     0.16100
H1024       H  0.12290008  0.81501821  0.12161869     0.16100
H1025       H  0.49287776  0.79427142  0.25353367     0.16100
H1026       H  0.55027942  0.73778610  0.25289686     0.16100
H1027       H  0.39863353  0.84415738  0.15453502     0.14400
H1028       H  0.38242827  0.82947175  0.19255836     0.14400
H1029       H  0.12073310  0.66756609  0.15322068     0.14400
H1030       H  0.09842047  0.64482573  0.18941372     0.14400
H1031       H  0.02653402  0.77505014  0.16105089     0.27700
H1032       H  0.00858066  0.75648786  0.19391807     0.27700
C1033       C  0.22829556  0.70049873  0.07017191     0.14200
C1034       C  0.18911092  0.71930946  0.07355011     0.01100
C1035       C  0.16927634  0.73933502  0.05790589     0.16100
C1036       C  0.18885233  0.74139065  0.03932021     0.25500
C1037       C  0.22909668  0.72458835  0.03632204    -0.40800
C1038       C  0.24818879  0.70314151  0.05161362     0.32600
C1039       C  0.16978807  0.72043190  0.09355209     0.01200
F1040       F  0.13235577  0.75917711  0.06101646    -0.13100
F1041       F  0.28691932  0.68629970  0.04876134    -0.13600
C1042       C  0.19195832  0.73804341  0.10940182     0.16100
C1043       C  0.17115964  0.74495991  0.12744852     0.25500
C1044       C  0.12804449  0.73450182  0.12974821    -0.40700
C1045       C  0.10646789  0.71526936  0.11428113     0.32500
C1046       C  0.12729600  0.70804209  0.09632522     0.14200
F1047       F  0.23261946  0.75119499  0.10690160    -0.13100
F1048       F  0.06445507  0.70574105  0.11619362    -0.13600
F1049       F  0.19195738  0.76447216  0.14214885    -0.15900
F1050       F  0.10540572  0.69071145  0.08127386    -0.14500
F1051       F  0.24782397  0.68069620  0.08499992    -0.14500
F1052       F  0.17011440  0.76234447  0.02467259    -0.15900
C1053       C  0.26924604  0.83710687  0.06275939     0.14200
C1054       C  0.30547919  0.83020114  0.07452088     0.01100
C1055       C  0.33520395  0.80195753  0.06834373     0.16100
C1056       C  0.32869017  0.78083878  0.05068956     0.25500
C1057       C  0.29245164  0.78779755  0.03899037    -0.40800
C1058       C  0.26299731  0.81632454  0.04508198     0.32600
C1059       C  0.31135577  0.85257862  0.09323769     0.01200
F1060       F  0.37083476  0.79543190  0.07922517    -0.13100
F1061       F  0.22840469  0.82437827  0.03374862    -0.13600
C1062       C  0.30791747  0.83379647  0.11173904     0.16100
C1063       C  0.30271968  0.85595822  0.12914847     0.25500
C1064       C  0.30096589  0.89708724  0.12816870    -0.40700
C1065       C  0.31017760  0.91568919  0.11002834     0.32500
C1066       C  0.31503944  0.89360478  0.09267193     0.14200
F1067       F  0.30614805  0.79410879  0.11275780    -0.13100
F1068       F  0.31069157  0.95542011  0.10888928    -0.13600
F1069       F  0.29569937  0.83726008  0.14662352    -0.15900
F1070       F  0.32063277  0.91232720  0.07509262    -0.14500
F1071       F  0.23968400  0.86386271  0.06850906    -0.14500
F1072       F  0.35763342  0.75353679  0.04500103    -0.15900
C1073       C  0.35384782  0.79559924  0.89483479     0.14200
C1074       C  0.37519908  0.81090071  0.91153008     0.01100
C1075       C  0.41645752  0.82695618  0.90913490     0.16100
C1076       C  0.43819080  0.82255764  0.89109051     0.25500
C1077       C  0.41829860  0.80328771  0.87514965    -0.40800
C1078       C  0.37505371  0.79259541  0.87665545     0.32600
C1079       C  0.35739781  0.80364164  0.93161398     0.01200
F1080       F  0.43700724  0.84365096  0.92476066    -0.13100
F1081       F  0.35547954  0.77380368  0.86136731    -0.13600
C1082       C  0.38151769  0.78253755  0.94558535     0.16100
C1083       C  0.36269975  0.76968086  0.96323923     0.25500
C1084       C  0.31948246  0.77711059  0.96701119    -0.40700
C1085       C  0.29591079  0.79974180  0.95368073     0.32500
C1086       C  0.31467369  0.81290969  0.93608425     0.14200
F1087       F  0.42244893  0.77203916  0.94159801    -0.13100
F1088       F  0.25445009  0.80843882  0.95760289    -0.13600
F1089       F  0.38601125  0.74832540  0.97622176    -0.15900
F1090       F  0.29068324  0.83362482  0.92312907    -0.14500
F1091       F  0.31449330  0.77895246  0.89664915    -0.14500
F1092       F  0.47994578  0.83332709  0.88979945    -0.15900
C1093       C  0.26460132  0.66294497  0.89081409     0.14200
C1094       C  0.23389319  0.65924646  0.90605784     0.01100
C1095       C  0.19843963  0.63429747  0.90292405     0.16100
C1096       C  0.19623289  0.61057975  0.88586410     0.25500
C1097       C  0.22940746  0.61137653  0.87170240    -0.40800
C1098       C  0.26258336  0.63899250  0.87390108     0.32600
C1099       C  0.24176082  0.67765152  0.92589832     0.01200
F1100       F  0.16771199  0.63049142  0.91707282    -0.13100
F1101       F  0.29488047  0.64049984  0.86041145    -0.13600
C1102       C  0.21117679  0.70176011  0.93517807     0.16100
C1103       C  0.21919642  0.71816895  0.95397184     0.25500
C1104       C  0.25806763  0.71123290  0.96370564    -0.40700
C1105       C  0.28836128  0.68682348  0.95459207     0.32500
C1106       C  0.28020312  0.67000813  0.93598489     0.14200
F1107       F  0.17393703  0.71009721  0.92589447    -0.13100
F1108       F  0.32569535  0.67879673  0.96388146    -0.13600
F1109       F  0.18942077  0.74161531  0.96251765    -0.15900
F1110       F  0.30958032  0.64539152  0.92798704    -0.14500
F1111       F  0.29787809  0.68838745  0.89281242    -0.14500
F1112       F  0.16345936  0.58459393  0.88391406    -0.15900
C1113       C  0.05522127  0.62253217  0.90850116     0.14200
C1114       C  0.03176359  0.58727648  0.90862477     0.01100
C1115       C  0.51310753  0.57402075  0.89095354     0.16100
C1116       C  0.51559419  0.59669689  0.87364875     0.25500
C1117       C  0.03585295  0.63345579  0.87396796    -0.40800
C1118       C  0.05724159  0.64546288  0.89129855     0.32600
C1119       C  0.02081723  0.56820781  0.92776868     0.01200
F1120       F  0.49006917  0.54015707  0.89079076    -0.13100
F1121       F  0.07672255  0.68111722  0.89203546    -0.13600
C1122       C  0.97987940  0.57360386  0.93589062     0.16100
C1123       C  0.96902081  0.55731965  0.95425418     0.25500
C1124       C  0.99879972  0.53504963  0.96489460    -0.40700
C1125       C  0.53978800  0.53072721  0.95710758     0.32500
C1126       C  0.55083241  0.54715930  0.93865378     0.14200
F1127       F  0.95065191  0.59558224  0.92618282    -0.13100
F1128       F  0.56912299  0.50933892  0.96706611    -0.13600
F1129       F  0.92950122  0.56396940  0.96187346    -0.15900
F1130       F  0.59077255  0.54187376  0.93122634    -0.14500
F1131       F  0.07280430  0.63646173  0.92552237    -0.14500
F1132       F  0.49469340  0.58447618  0.85711475    -0.15900
C1133       C  0.37038528  0.46684544  0.94607176     0.14200
C1134       C  0.39498334  0.44439101  0.93271709     0.01100
C1135       C  0.44719344  0.94589514  0.93319140     0.16100
C1136       C  0.46745582  0.95731531  0.95070930     0.25500
C1137       C  0.43139968  0.47399528  0.96779655    -0.40800
C1138       C  0.38829600  0.48088513  0.96363662     0.32600
C1139       C  0.38463207  0.94875461  0.91050056     0.01200
F1140       F  0.46932433  0.92544037  0.91927690    -0.13100
F1141       F  0.36412396  0.50275064  0.97620186    -0.13600
C1142       C  0.39829521  0.44642961  0.89573520     0.16100
C1143       C  0.37702454  0.44578646  0.87762183     0.25500
C1144       C  0.33759388  0.94748438  0.87520344    -0.40700
C1145       C  0.32560827  0.92295174  0.89101656     0.32500
C1146       C  0.34865764  0.92419151  0.90876462     0.14200
F1147       F  0.43730102  0.46400109  0.89665481    -0.08300
F1148       F  0.28951104  0.90078275  0.88987201    -0.13600
F1149       F  0.39637313  0.46177580  0.86145674    -0.15900
F1150       F  0.33454976  0.90345339  0.92465858    -0.14500
F1151       F  0.32968703  0.47709793  0.94163247    -0.14500
F1152       F  0.50859340  0.94660559  0.95380031    -0.15900
C1153       C  0.04794961  0.56475614  0.06379375     0.14200
C1154       C  0.06765981  0.53293693  0.07307706     0.01100
C1155       C  0.07453970  0.99027624  0.06543786     0.16100
C1156       C  0.05657297  0.98355763  0.04682168     0.25500
C1157       C  0.02213747  0.52127352  0.03768194    -0.40800
C1158       C  0.02545731  0.55903174  0.04606570     0.32600
C1159       C  0.08922959  0.53762214  0.09230565     0.01200
F1160       F  0.08748536  0.95926317  0.07642555    -0.13100
F1161       F  0.00462670  0.58965840  0.03779567    -0.13600
C1162       C  0.06679863  0.52953012  0.10993217     0.16100
C1163       C  0.08888893  0.52501241  0.12775829     0.25500
C1164       C  0.13355516  0.52864165  0.12804448    -0.40700
C1165       C  0.16087304  0.04950300  0.11188984     0.32500
C1166       C  0.13863691  0.05177127  0.09402770     0.14200
F1167       F  0.02397853  0.52314158  0.10955134    -0.13100
F1168       F  0.20240317  0.06118268  0.11251348    -0.13600
F1169       F  0.06729655  0.51359166  0.14429452    -0.15900
F1170       F  0.15861324  0.06658258  0.07774699    -0.14500
F1171       F  0.04952352  0.60094026  0.07221359    -0.14500
F1172       F  0.05252902  0.94618285  0.04005745    -0.15900
C1173       C  0.43662518  0.90801460  0.05588704     0.14200
C1174       C  0.44450331  0.92648675  0.07428757     0.01100
C1175       C  0.95427093  0.96694294  0.07419276     0.16100
C1176       C  0.95900640  0.98715601  0.05621716     0.25500
C1177       C  0.45973301  0.96654449  0.03792504    -0.40800
C1178       C  0.44677385  0.92687231  0.03806211     0.32600
C1179       C  0.44850128  0.90238748  0.09288768     0.01200
F1180       F  0.96182693  0.98697672  0.09121833    -0.13100
F1181       F  0.44603343  0.90538616  0.02107731    -0.13600
C1182       C  0.46882890  0.86555186  0.09199683     0.16100
C1183       C  0.47635246  0.84401488  0.10913796     0.25500
C1184       C  0.46941106  0.86052459  0.12800836    -0.40700
C1185       C  0.44827419  0.89678943  0.12917842     0.32500
C1186       C  0.43597449  0.91650307  0.11180010     0.14200
F1187       F  0.48478522  0.85119483  0.07470517    -0.13100
F1188       F  0.44155774  0.91422191  0.14703066    -0.13600
F1189       F  0.49376684  0.80780864  0.10726301    -0.15900
F1190       F  0.41255573  0.94965592  0.11362255    -0.14500
F1191       F  0.42084022  0.87086399  0.05508371    -0.14500
F1192       F  0.96497407  0.02656647  0.05673995    -0.15900
C1193       C  0.38070116  0.80023942  0.55275281     0.14200
C1194       C  0.40594668  0.80618287  0.56976078     0.01100
C1195       C  0.45071899  0.80666561  0.56779971     0.16100
C1196       C  0.46986295  0.79755893  0.54959616     0.25500
C1197       C  0.44448837  0.78809502  0.53309082    -0.40800
C1198       C  0.39991907  0.79202087  0.53445824     0.32600
C1199       C  0.38578144  0.80759886  0.58971169     0.01200
F1200       F  0.47585818  0.81422068  0.58374946    -0.13100
F1201       F  0.37482783  0.78381626  0.51856635    -0.13600
C1202       C  0.39698096  0.77971601  0.60409147     0.16100
C1203       C  0.37454456  0.77757894  0.62199508     0.25500
C1204       C  0.34146866  0.80404835  0.62614309    -0.40700
C1205       C  0.33171220  0.83320584  0.61230713     0.32500
C1206       C  0.35291785  0.83426497  0.59400954     0.14200
F1207       F  0.42753249  0.75264505  0.60023889    -0.13100
F1208       F  0.29944905  0.85865012  0.61594426    -0.13600
F1209       F  0.38316794  0.74798734  0.63478265    -0.15900
F1210       F  0.33972633  0.85987841  0.58008246    -0.14500
F1211       F  0.33741888  0.79906279  0.55413775    -0.14500
F1212       F  0.51311806  0.79585250  0.54830469    -0.15900
C1213       C  0.08908037  0.73171011  0.44203482     0.14200
C1214       C  0.07462304  0.70098891  0.42975338     0.01100
C1215       C  0.03706382  0.68054740  0.43505150     0.16100
C1216       C  0.01428252  0.69093253  0.45229689     0.25500
C1217       C  0.02824418  0.72245178  0.46416212    -0.40800
C1218       C  0.06606247  0.74237802  0.45901020     0.32600
C1219       C  0.09747765  0.69306593  0.41077437     0.01200
F1220       F  0.02219274  0.65101584  0.42338275    -0.13100
F1221       F  0.08021412  0.77284226  0.47027023    -0.13600
C1222       C  0.14085220  0.68252096  0.41090678     0.16100
C1223       C  0.16550120  0.68512592  0.39354002     0.25500
C1224       C  0.14717487  0.69830584  0.37575852    -0.40700
C1225       C  0.10303455  0.70561894  0.37526008     0.32500
C1226       C  0.07830096  0.70277864  0.39261858     0.14200
F1227       F  0.16003319  0.67264657  0.42820414    -0.13100
F1228       F  0.08494012  0.71985111  0.35851413    -0.13600
F1229       F  0.20818852  0.67859962  0.39449568    -0.15900
F1230       F  0.03661694  0.71348754  0.39210763    -0.14500
F1231       F  0.12460551  0.75262071  0.43706723    -0.14500
F1232       F  0.97791563  0.67114668  0.45707010    -0.15900
C1233       C  0.95709796  0.84295033  0.38963883     0.14200
C1234       C  0.44731649  0.85944255  0.40832010     0.01100
C1235       C  0.43533788  0.89905113  0.40962272     0.16100
C1236       C  0.43749878  0.92305514  0.39286431     0.25500
C1237       C  0.45123826  0.90766147  0.37457951    -0.40800
C1238       C  0.95845200  0.86681686  0.37279823     0.32600
C1239       C  0.45535642  0.83654232  0.42659611     0.01200
F1240       F  0.42412056  0.91497811  0.42736914    -0.13100
F1241       F  0.97137178  0.85132007  0.35521073    -0.13600
C1242       C  0.98500683  0.85079412  0.44079191     0.16100
C1243       C  0.99370316  0.82926545  0.45790681     0.25500
C1244       C  0.97369822  0.79288530  0.46106705    -0.40700
C1245       C  0.44405692  0.77834470  0.44680372     0.32500
C1246       C  0.43510505  0.80017952  0.42977633     0.14200
F1247       F  0.00568823  0.88544853  0.43787965    -0.13100
F1248       F  0.42333206  0.74378912  0.44983348    -0.13600
F1249       F  0.02164847  0.84388027  0.47144986    -0.15900
F1250       F  0.40589671  0.78631122  0.41663718    -0.14500
F1251       F  0.96901115  0.80488714  0.38795902    -0.14500
F1252       F  0.42974913  0.96200036  0.39478196    -0.15900
C1253       C  0.20955640  0.57575973  0.43263961     0.14200
C1254       C  0.17355524  0.55443928  0.42618691     0.01100
C1255       C  0.16895385  0.01578174  0.43537104     0.16100
C1256       C  0.18853538  0.00638027  0.45328586     0.25500
C1257       C  0.21673678  0.53226298  0.46120835    -0.40800
C1258       C  0.23065311  0.56509058  0.45022259     0.32600
C1259       C  0.15005086  0.56464508  0.40781823     0.01200
F1260       F  0.13597979  0.99322615  0.42876880    -0.13100
F1261       F  0.26520456  0.58614204  0.45625919    -0.13600
C1262       C  0.17654438  0.03778866  0.38767066     0.16100
C1263       C  0.14984033  0.03523570  0.37108613     0.25500
C1264       C  0.09643990  0.55981668  0.37437195    -0.40700
C1265       C  0.08040453  0.57365388  0.39258240     0.32500
C1266       C  0.10700003  0.57591855  0.40919741     0.14200
F1267       F  0.21467919  0.01904624  0.38739038    -0.13100
F1268       F  0.03800679  0.58075219  0.39475659    -0.13600
F1269       F  0.16260823  0.01403803  0.35506232    -0.15900
F1270       F  0.08982877  0.58543998  0.42708950    -0.14500
F1271       F  0.22408723  0.60683846  0.42198267    -0.14500
F1272       F  0.17391282  0.97497200  0.46369169    -0.15900
C1273       C  0.31572401  0.85395227  0.40836884     0.14200
C1274       C  0.30046156  0.89259356  0.40809511     0.01100
C1275       C  0.28691781  0.90893549  0.39005923     0.16100
C1276       C  0.28496994  0.88575938  0.37295975     0.25500
C1277       C  0.29607050  0.84603619  0.37383721    -0.40800
C1278       C  0.31326913  0.83071362  0.39133937     0.32600
C1279       C  0.29318813  0.91389218  0.42690645     0.01200
F1280       F  0.27159474  0.94605273  0.38945353    -0.13100
F1281       F  0.32376615  0.79222340  0.39237042    -0.13600
C1282       C  0.31096991  0.95126715  0.42996413     0.16100
C1283       C  0.30125952  0.97232454  0.44719380     0.25500
C1284       C  0.27364554  0.95627623  0.46163093    -0.40700
C1285       C  0.25673281  0.91848466  0.45879129     0.32500
C1286       C  0.26605518  0.89761219  0.44146725     0.14200
F1287       F  0.33786201  0.96722855  0.41629315    -0.13100
F1288       F  0.23022776  0.90227777  0.47254391    -0.13600
F1289       F  0.31931633  0.00821681  0.44993895    -0.15900
F1290       F  0.24736035  0.86201447  0.43857704    -0.14500
F1291       F  0.33002600  0.83793462  0.42549907    -0.14500
F1292       F  0.26795552  0.90082667  0.35614580    -0.15900
C1293       C  0.21395532  0.60276697  0.60215895     0.14200
C1294       C  0.24809955  0.61132789  0.58902701     0.01100
C1295       C  0.27869086  0.63942995  0.59478970     0.16100
C1296       C  0.27524831  0.65847888  0.61301028     0.25500
C1297       C  0.23912739  0.65271653  0.62529095    -0.40800
C1298       C  0.20865947  0.62431784  0.61977677     0.32600
C1299       C  0.25119379  0.59239512  0.56909455     0.01200
F1300       F  0.31097024  0.65017584  0.58237589    -0.13100
F1301       F  0.17304523  0.61846673  0.63097299    -0.13600
C1302       C  0.21496682  0.58938749  0.55681540     0.16100
C1303       C  0.21735238  0.56989785  0.53858138     0.25500
C1304       C  0.25647431  0.55460521  0.53180452    -0.40700
C1305       C  0.29358379  0.56159593  0.54294802     0.32500
C1306       C  0.29063691  0.57831472  0.56185866     0.14200
F1307       F  0.17697625  0.60486321  0.56252363    -0.13100
F1308       F  0.33211908  0.54894713  0.53627339    -0.13600
F1309       F  0.18086500  0.56390829  0.52812300    -0.15900
F1310       F  0.32594059  0.57847845  0.57349816    -0.14500
F1311       F  0.18542325  0.57383493  0.59786414    -0.14500
F1312       F  0.30651277  0.68430363  0.61822829    -0.15900
C1313       C  0.45084256  0.68797767  0.56602480     0.14200
C1314       C  0.99080916  0.67666832  0.57433239     0.01100
C1315       C  0.02823953  0.68237449  0.56287264     0.16100
C1316       C  0.02631823  0.70012434  0.54414124     0.25500
C1317       C  0.98683084  0.71072286  0.53593890    -0.40800
C1318       C  0.44881855  0.70257229  0.54670543     0.32600
C1319       C  0.99214252  0.65592488  0.59391529     0.01200
F1320       F  0.06672518  0.66993461  0.56948255    -0.13100
F1321       F  0.40987598  0.70902307  0.53861644    -0.13600
C1322       C  0.46121038  0.62646076  0.59828716     0.16100
C1323       C  0.46289899  0.60587262  0.61608082     0.25500
C1324       C  0.99823710  0.61035667  0.62900923    -0.40700
C1325       C  0.02849802  0.64001372  0.62499526     0.32500
C1326       C  0.02438278  0.66371251  0.60807278     0.14200
F1327       F  0.43148626  0.61523307  0.58475457    -0.13100
F1328       F  0.06325935  0.64473139  0.63675906    -0.13600
F1329       F  0.43208187  0.57858147  0.61981735    -0.15900
F1330       F  0.05255823  0.69366433  0.60537827    -0.14500
F1331       F  0.41402013  0.68546149  0.57669335    -0.14500
F1332       F  0.06320591  0.70729466  0.53408305    -0.15900
C1333       C  0.40849308  0.43154360  0.58734240     0.14200
C1334       C  0.36099041  0.94022232  0.58882025     0.01100
C1335       C  0.34258354  0.94454529  0.60794177     0.16100
C1336       C  0.36856025  0.94999576  0.62457138     0.25500
C1337       C  0.41262808  0.94234658  0.62347742    -0.40800
C1338       C  0.43183471  0.42547469  0.60480056     0.32600
C1339       C  0.33486722  0.94686862  0.57018257     0.01200
F1340       F  0.29967762  0.94365429  0.61083855    -0.13100
F1341       F  0.47184335  0.41040171  0.60357902    -0.13600
C1342       C  0.34676106  0.93067776  0.55159580     0.16100
C1343       C  0.32885123  0.94454607  0.53400015     0.25500
C1344       C  0.29248648  0.96888262  0.53438293    -0.40700
C1345       C  0.27574662  0.47842996  0.55320420     0.32500
C1346       C  0.30072167  0.47261082  0.57015016     0.14200
F1347       F  0.37543824  0.90122948  0.54998584    -0.13100
F1348       F  0.23612065  0.49362906  0.55556959    -0.13600
F1349       F  0.34842259  0.93467939  0.51670349    -0.15900
F1350       F  0.28932146  0.49287417  0.58665074    -0.14500
F1351       F  0.43089248  0.43085632  0.57011745    -0.14500
F1352       F  0.35056722  0.96397169  0.64151666    -0.15900
In1353     In  0.87450112  0.37624192  0.25157963     1.36900
C1354       C  0.82167270  0.33197828  0.27384320     0.79100
O1355       O  0.83709317  0.43113557  0.24339185    -0.59300
O1356       O  0.82809273  0.37965138  0.22642109    -0.50300
C1357       C  0.92403172  0.42171927  0.27479680     0.71800
O1358       O  0.91225777  0.38744858  0.27928646    -0.45100
C1359       C  0.93160075  0.33656968  0.22929339     0.76500
O1360       O  0.82964042  0.36765328  0.27726328    -0.57000
O1361       O  0.91504998  0.36868588  0.22440090    -0.47100
O1362       O  0.83866296  0.31916864  0.25816906    -0.53400
C1363       C  0.81930162  0.41542848  0.22861675     0.86600
O1364       O  0.91251608  0.43224860  0.25775332    -0.55300
O1365       O  0.92073289  0.32532340  0.24636176    -0.58600
N1366       N  0.49550625  0.50097248  0.70718917    -0.35100
N1367       N  0.95903227  0.45097453  0.67564876    -0.55700
N1368       N  0.98099708  0.01530155  0.64796944    -0.35100
N1369       N  0.52142998  0.06294875  0.67791654    -0.55700
C1370       C  0.98380940  0.46877961  0.71770766     0.28500
C1371       C  0.52483500  0.02360434  0.71752214     0.28500
C1372       C  0.97146681  0.98564766  0.63535500     0.28500
C1373       C  0.00318449  0.04248909  0.63755176     0.28500
C1374       C  0.94079954  0.43377709  0.69170146     0.37100
C1375       C  0.93733636  0.43783930  0.65947512     0.37100
C1376       C  0.52900962  0.08174813  0.69518550     0.37100
C1377       C  0.51552958  0.09072912  0.66389899     0.37100
C1378       C  0.50553528  0.46903665  0.73561432    -0.20400
C1379       C  0.53157283  0.50197085  0.73570528    -0.20400
C1380       C  0.98914285  0.99413816  0.61682109    -0.20400
C1381       C  0.00979673  0.02945056  0.61839400    -0.20400
C1382       C  0.90834187  0.40868752  0.68552726    -0.21400
C1383       C  0.90684796  0.41056120  0.66518976    -0.21400
C1384       C  0.52839011  0.12204923  0.69197514    -0.21400
C1385       C  0.51913459  0.12763457  0.67220454    -0.21400
C1386       C  0.95320274  0.43992274  0.71180741    -0.16800
C1387       C  0.54007432  0.06229631  0.71304587    -0.16800
C1388       C  0.50901791  0.08196329  0.64366168    -0.16800
C1389       C  0.94450618  0.45094762  0.63971223    -0.16800
H1390       H  0.50281862  0.44771853  0.74742326     0.16100
H1391       H  0.55154942  0.51114134  0.74794250     0.16100
H1392       H  0.98640052  0.97864717  0.60297870     0.16100
H1393       H  0.02481937  0.04534596  0.60632656     0.16100
H1394       H  0.88693291  0.39157417  0.69467738     0.14400
H1395       H  0.88488782  0.39450084  0.65578806     0.14400
H1396       H  0.53284269  0.14541319  0.70261990     0.14400
H1397       H  0.51584423  0.15558103  0.66484155     0.14400
H1398       H  0.97925912  0.01267457  0.69443813     0.27700
H1399       H  0.96600438  0.02037265  0.66154675     0.27700
C1400       C  0.76076848  0.02657519  0.51408519     0.03800
C1401       C  0.77507517  0.98675415  0.51543258     0.03800
C1402       C  0.77134030  0.46597127  0.49819492    -0.16800
C1403       C  0.75744379  0.48134865  0.48006283     0.03800
C1404       C  0.73909200  0.51888532  0.47934866     0.03800
C1405       C  0.74468658  0.04037132  0.49583804    -0.16800
H1406       H  0.73184476  0.06972401  0.49489923     0.05800
H1407       H  0.78244639  0.43601916  0.49837954     0.05800
N1408       N  0.50986745  0.49393490  0.35445530    -0.35100
N1409       N  0.55531288  0.03731484  0.32279634    -0.55700
N1410       N  0.00037442  0.00123536  0.29276493    -0.35100
N1411       N  0.96096924  0.45332979  0.32465149    -0.55700
C1412       C  0.54440777  0.50797805  0.36416157     0.28500
C1413       C  0.49578542  0.46227959  0.36459499     0.28500
C1414       C  0.52824379  0.02174665  0.28118937     0.28500
C1415       C  0.98064407  0.47314021  0.28259498     0.28500
C1416       C  0.56904937  0.05575757  0.33940709     0.37100
C1417       C  0.55889193  0.06354702  0.30793608     0.37100
C1418       C  0.93996545  0.44180489  0.34123148     0.37100
C1419       C  0.93493864  0.44488141  0.30929409     0.37100
C1420       C  0.55229039  0.48509354  0.38072308    -0.20400
C1421       C  0.52149684  0.45620973  0.38101066    -0.20400
C1422       C  0.02766844  0.00620348  0.26220102    -0.20400
C1423       C  0.99883768  0.97519922  0.26233975    -0.20400
C1424       C  0.58034610  0.09402626  0.33530687    -0.21400
C1425       C  0.57407130  0.09907608  0.31530155    -0.21400
C1426       C  0.90021246  0.42673477  0.33656055    -0.21400
C1427       C  0.89685428  0.42876063  0.31627948    -0.21400
C1428       C  0.57534106  0.03681021  0.35763794    -0.16800
C1429       C  0.95855350  0.44079191  0.36014964    -0.16800
C1430       C  0.94712342  0.44770276  0.28909669    -0.16800
C1431       C  0.55369616  0.05416703  0.28761370    -0.16800
H1432       H  0.57733000  0.48898103  0.39159678     0.16100
H1433       H  0.51826158  0.43355133  0.39213614     0.16100
H1434       H  0.04635215  0.01580555  0.24955230     0.16100
H1435       H  0.99129602  0.95663751  0.24977941     0.16100
H1436       H  0.59116614  0.11592801  0.34576675     0.14400
H1437       H  0.58020203  0.12575676  0.30709571     0.14400
H1438       H  0.87635098  0.41555819  0.34675871     0.14400
H1439       H  0.86956880  0.41920955  0.30767798     0.14400
H1440       H  0.49405932  0.50767484  0.34285004     0.27700
H1441       H  0.48862176  0.51117483  0.30731331     0.27700
C1442       C  0.49064704  0.24049727  0.51674671     0.03800
C1443       C  0.96819945  0.27645245  0.51584426     0.03800
C1444       C  0.96252796  0.29476690  0.49751510    -0.16800
C1445       C  0.48040505  0.27969863  0.48015236     0.03800
C1446       C  0.50534077  0.24534074  0.48097852     0.03800
C1447       C  0.50940391  0.22560571  0.49920489    -0.16800
H1448       H  0.52738277  0.19859849  0.49971010     0.05800
H1449       H  0.94435850  0.32169208  0.49680789     0.05800
N1450       N  0.77358529  0.23961011  0.65061004    -0.35100
N1451       N  0.80932436  0.28907740  0.67998842    -0.55700
N1452       N  0.76841011  0.23828422  0.71019393    -0.35100
N1453       N  0.73034070  0.19043637  0.67835301    -0.55700
C1454       C  0.78578174  0.27071674  0.63963782     0.28500
C1455       C  0.74784910  0.21731971  0.63925915     0.28500
C1456       C  0.78158694  0.26965160  0.72105883     0.28500
C1457       C  0.73555637  0.22055339  0.71999622     0.28500
C1458       C  0.83457893  0.29817026  0.66429363     0.37100
C1459       C  0.83241594  0.29695432  0.69633306     0.37100
C1460       C  0.73367896  0.16508945  0.66290622     0.37100
C1461       C  0.72196275  0.16894662  0.69466388     0.37100
C1462       C  0.76575591  0.26905609  0.62129222    -0.20400
C1463       C  0.74157435  0.23526144  0.62111271    -0.20400
C1464       C  0.75720688  0.27184246  0.73821144    -0.20400
C1465       C  0.72790221  0.24118308  0.73747427    -0.20400
C1466       C  0.87370766  0.31232503  0.67063962    -0.21400
C1467       C  0.87243152  0.31135905  0.69101276    -0.21400
C1468       C  0.72747610  0.12704248  0.66940419    -0.21400
C1469       C  0.71921057  0.12953360  0.68952494    -0.21400
C1470       C  0.82163332  0.29395782  0.64441099    -0.16800
C1471       C  0.74065567  0.17742933  0.64313189    -0.16800
C1472       C  0.71467495  0.18512631  0.71378575    -0.16800
C1473       C  0.81601918  0.29512451  0.71583147    -0.16800
H1474       H  0.77051487  0.28813125  0.60870419     0.16100
H1475       H  0.72473481  0.22327862  0.60844897     0.16100
H1476       H  0.75994501  0.29346099  0.74993301     0.16100
H1477       H  0.70391528  0.23508315  0.74864833     0.16100
H1478       H  0.90041375  0.32192945  0.66159827     0.14400
H1479       H  0.89806097  0.32015961  0.70082015     0.14400
H1480       H  0.72833347  0.10044662  0.66063720     0.14400
H1481       H  0.71297311  0.10506315  0.69932717     0.14400
H1482       H  0.78950294  0.22934645  0.66308830     0.27700
H1483       H  0.78368556  0.22770658  0.69754033     0.27700
N1484       N  0.72834741  0.26623609  0.35337952    -0.35100
N1485       N  0.77889483  0.30566353  0.32334294    -0.55700
N1486       N  0.74762822  0.25140186  0.29338642    -0.35100
N1487       N  0.69263729  0.21503701  0.32398144    -0.55700
C1488       C  0.73893419  0.30010590  0.36251591     0.28500
C1489       C  0.69399450  0.25159375  0.36304929     0.28500
C1490       C  0.76578735  0.27968394  0.28188077     0.28500
C1491       C  0.71929196  0.23107787  0.28208690     0.28500
C1492       C  0.79699979  0.32008121  0.34000285     0.37100
C1493       C  0.80671984  0.31310073  0.30850182     0.37100
C1494       C  0.68017555  0.19612287  0.34071634     0.37100
C1495       C  0.68880178  0.18903919  0.30894842     0.37100
C1496       C  0.71089127  0.30729912  0.37807961    -0.20400
C1497       C  0.68237866  0.27659235  0.37840417    -0.20400
C1498       C  0.74918302  0.27696054  0.26288976    -0.20400
C1499       C  0.71983427  0.24638528  0.26301796    -0.20400
C1500       C  0.83667458  0.33612051  0.33594174    -0.21400
C1501       C  0.84298366  0.33168679  0.31590241    -0.21400
C1502       C  0.66926968  0.15779777  0.33647606    -0.21400
C1503       C  0.67436424  0.15325743  0.31628998    -0.21400
C1504       C  0.77581203  0.32232942  0.35830495    -0.16800
C1505       C  0.67559485  0.21456152  0.35934517    -0.16800
C1506       C  0.69425791  0.19842311  0.28858900    -0.16800
C1507       C  0.79753907  0.30704211  0.28823513    -0.16800
H1508       H  0.71147817  0.33166452  0.38840357     0.16100
H1509       H  0.65659519  0.27277259  0.38899073     0.16100
H1510       H  0.75702641  0.29528232  0.25029309     0.16100
H1511       H  0.70087326  0.23681867  0.25049663     0.16100
H1512       H  0.85853856  0.34950482  0.34636666     0.14400
H1513       H  0.87096694  0.34123391  0.30772747     0.14400
H1514       H  0.65951391  0.13552438  0.34694302     0.14400
H1515       H  0.66839582  0.12658755  0.30799076     0.14400
H1516       H  0.74688627  0.25146987  0.34292075     0.27700
H1517       H  0.75659334  0.24419284  0.30776565     0.27700
C1518       C  0.95755659  0.48909064  0.02171438     0.03800
C1519       C  0.51414465  0.00772470  0.01793172     0.03800
C1520       C  0.52727582  0.02390966  0.99969217    -0.16800
C1521       C  0.00401525  0.01695810  0.98236258     0.03800
C1522       C  0.96728756  0.99275460  0.98328594     0.03800
C1523       C  0.93602566  0.47902581  0.00420923    -0.16800
H1524       H  0.90802925  0.46020279  0.00487945     0.05800
H1525       H  0.55577501  0.04212904  0.99904701     0.05800
N1526       N  0.76539290  0.00291011  0.78992242    -0.35100
N1527       N  0.72348961  0.05478466  0.81969647    -0.55700
N1528       N  0.76194713  0.01157674  0.85071227    -0.35100
N1529       N  0.79974612  0.45564867  0.82485168    -0.55700
C1530       C  0.73566995  0.02090625  0.77846761     0.28500
C1531       C  0.78086199  0.47140568  0.78207784     0.28500
C1532       C  0.73742188  0.03636923  0.86144214     0.28500
C1533       C  0.77547362  0.98340080  0.86312285     0.28500
C1534       C  0.71616503  0.07377582  0.80257176     0.37100
C1535       C  0.72014980  0.08182891  0.83437218     0.37100
C1536       C  0.81562850  0.43439487  0.80955000     0.37100
C1537       C  0.81132816  0.43692212  0.84164226     0.37100
C1538       C  0.73465648  0.50268349  0.76282347    -0.20400
C1539       C  0.76312832  0.47190706  0.76327001    -0.20400
C1540       C  0.73454784  0.02326968  0.88084426    -0.20400
C1541       C  0.75848237  0.98987231  0.88190504    -0.20400
C1542       C  0.70775886  0.11302532  0.80643739    -0.21400
C1543       C  0.71025890  0.11809553  0.82661191    -0.21400
C1544       C  0.83607279  0.40138549  0.81677221    -0.21400
C1545       C  0.83308174  0.40291989  0.83700863    -0.21400
C1546       C  0.71248456  0.05553867  0.78376388    -0.16800
C1547       C  0.81026201  0.44279209  0.78908658    -0.16800
C1548       C  0.80731701  0.45189106  0.86112238    -0.16800
C1549       C  0.72363908  0.07329204  0.85474392    -0.16800
H1550       H  0.71299536  0.00828281  0.74801896     0.16100
H1551       H  0.76877440  0.45158967  0.75122162     0.16100
H1552       H  0.71887332  0.03713893  0.89330770     0.16100
H1553       H  0.76431233  0.97372299  0.89536946     0.16100
H1554       H  0.70040327  0.13564691  0.79577421     0.14400
H1555       H  0.70480529  0.14514961  0.83463248     0.14400
H1556       H  0.85058274  0.37786252  0.80840134     0.14400
H1557       H  0.84586647  0.38165604  0.84722721     0.14400
H1558       H  0.77683480  0.01337845  0.80334683     0.27700
H1559       H  0.77547302  0.01772782  0.83700926     0.27700
N1560       N  0.98953610  0.23369939  0.85497396    -0.35100
N1561       N  0.53960465  0.19252400  0.82503153    -0.55700
N1562       N  0.51239999  0.24896871  0.79485884    -0.35100
N1563       N  0.95892977  0.28672434  0.82522259    -0.55700
C1564       C  0.99891259  0.20002942  0.86445389     0.28500
C1565       C  0.95525741  0.24930646  0.86432461     0.28500
C1566       C  0.53015373  0.22065365  0.78328010     0.28500
C1567       C  0.98561202  0.27048822  0.78347742     0.28500
C1568       C  0.55568920  0.17622177  0.84172900     0.37100
C1569       C  0.56675604  0.18330477  0.81007380     0.37100
C1570       C  0.94407245  0.30489639  0.84169215     0.37100
C1571       C  0.95560253  0.31271363  0.81029772     0.37100
C1572       C  0.97032246  0.19419110  0.87998532    -0.20400
C1573       C  0.94295379  0.22541721  0.87998709    -0.20400
C1574       C  0.51511897  0.22471228  0.76405925    -0.20400
C1575       C  0.48706542  0.25593476  0.76412733    -0.20400
C1576       C  0.59331013  0.15685031  0.83745536    -0.21400
C1577       C  0.60029929  0.16131691  0.81743051    -0.21400
C1578       C  0.93206461  0.34281501  0.83741607    -0.21400
C1579       C  0.93950472  0.34790050  0.81748769    -0.21400
C1580       C  0.53485171  0.17619006  0.86039263    -0.16800
C1581       C  0.93659410  0.28575123  0.85980277    -0.16800
C1582       C  0.96079427  0.30311901  0.79000915    -0.16800
C1583       C  0.55993235  0.19178026  0.78968719    -0.16800
H1584       H  0.96955873  0.17017433  0.89044247     0.16100
H1585       H  0.91727162  0.23009915  0.89051290     0.16100
H1586       H  0.52294551  0.20669900  0.75132699     0.16100
H1587       H  0.46946094  0.26643341  0.75144650     0.16100
H1588       H  0.61326619  0.14075576  0.84763061     0.14400
H1589       H  0.62695740  0.14950528  0.80920134     0.14400
H1590       H  0.91883929  0.36421360  0.84754991     0.14400
H1591       H  0.93280113  0.37417078  0.80912502     0.14400
H1592       H  0.00848208  0.24737842  0.84432005     0.27700
H1593       H  0.02061869  0.25521867  0.80954393     0.27700
In1594     In  0.62607821  0.12549932  0.24994333     1.36900
C1595       C  0.66845697  0.07164217  0.22784715     0.79100
O1596       O  0.68533794  0.16189535  0.25770296    -0.59300
O1597       O  0.63272289  0.16196922  0.27746556    -0.50300
C1598       C  0.58565660  0.17923429  0.22733257     0.71800
O1599       O  0.62278833  0.16669267  0.22390561    -0.45100
C1600       C  0.57935592  0.07784240  0.27321941     0.76500
O1601       O  0.63032044  0.08179198  0.22492216    -0.57000
O1602       O  0.61709326  0.08857072  0.27700132    -0.47100
O1603       O  0.68521815  0.08820459  0.24266917    -0.53400
C1604       C  0.67021441  0.17383868  0.27400890     0.86600
O1605       O  0.56883270  0.16466988  0.24266017    -0.55300
O1606       O  0.56545542  0.09032380  0.25687997    -0.58600
N1607       N  0.70967018  0.46115305  0.15135059    -0.35100
N1608       N  0.68829460  0.02218538  0.17935509    -0.55700
N1609       N  0.74495650  0.99186493  0.20954844    -0.35100
N1610       N  0.76626155  0.42883213  0.18013077    -0.55700
C1611       C  0.67483238  0.47487192  0.14205205     0.28500
C1612       C  0.71986648  0.42684635  0.14258317     0.28500
C1613       C  0.71813611  0.01381545  0.22090818     0.28500
C1614       C  0.76268726  0.46598095  0.22038106     0.28500
C1615       C  0.67268357  0.03733926  0.16236527     0.37100
C1616       C  0.68363395  0.05018066  0.19338617     0.37100
C1617       C  0.78161044  0.41146723  0.16348663     0.37100
C1618       C  0.79727245  0.42607123  0.19388372     0.37100
C1619       C  0.66214758  0.44859686  0.12740494    -0.20400
C1620       C  0.69074569  0.41820691  0.12772149    -0.20400
C1621       C  0.72118643  0.00153371  0.24044625    -0.20400
C1622       C  0.75013150  0.97091704  0.24077263    -0.20400
C1623       C  0.65806099  0.07498707  0.16548484    -0.21400
C1624       C  0.66552061  0.08336031  0.18510027    -0.21400
C1625       C  0.82231339  0.39764221  0.16659192    -0.21400
C1626       C  0.83244219  0.40700008  0.18585298    -0.21400
C1627       C  0.66889833  0.01636949  0.14447719    -0.16800
C1628       C  0.75820388  0.40664134  0.14585214    -0.16800
C1629       C  0.79249125  0.43700776  0.21404526    -0.16800
C1630       C  0.69161552  0.04473904  0.21386801    -0.16800
H1631       H  0.63617776  0.45182424  0.11698927     0.16100
H1632       H  0.69113441  0.39348141  0.11761869     0.16100
H1633       H  0.70404011  0.01306777  0.25313298     0.16100
H1634       H  0.75955589  0.95471656  0.25379925     0.16100
H1635       H  0.64363698  0.09428780  0.15474685     0.14400
H1636       H  0.65842449  0.11078242  0.19243771     0.14400
H1637       H  0.84234841  0.38266987  0.15598246     0.14400
H1638       H  0.86239197  0.40077805  0.19309540     0.14400
H1639       H  0.72944212  0.47742550  0.16067312     0.27700
H1640       H  0.74808582  0.49513206  0.19322599     0.27700
C1641       C  0.76732624  0.26481528  0.98058020     0.03800
C1642       C  0.73883310  0.23255305  0.97951604     0.03800
C1643       C  0.71789111  0.21981661  0.99676449    -0.16800
C1644       C  0.72552467  0.23833788  0.01502550     0.03800
C1645       C  0.75514227  0.26976755  0.01624670     0.03800
C1646       C  0.77553593  0.28286355  0.99892743    -0.16800
H1647       H  0.79793026  0.30720592  0.99971967     0.05800
H1648       H  0.69543603  0.19552143  0.99596734     0.05800
In1649     In  0.62865569  0.12145292  0.74926403     1.36900
C1650       C  0.68360681  0.16379532  0.72695144     0.79100
O1651       O  0.58815116  0.13086404  0.77671207    -0.59300
O1652       O  0.60194550  0.18083843  0.75948316    -0.50300
C1653       C  0.57050767  0.08267240  0.72682220     0.71800
O1654       O  0.56935643  0.11882787  0.73035668    -0.45100
C1655       C  0.68153694  0.07487319  0.77009616     0.76500
O1656       O  0.65448286  0.14208045  0.71997829    -0.57000
O1657       O  0.64659956  0.08818699  0.77650514    -0.47100
O1658       O  0.68399399  0.16491064  0.74568151    -0.53400
C1659       C  0.58362474  0.16732583  0.77473923     0.86600
O1660       O  0.60127076  0.06583559  0.73516981    -0.55300
O1661       O  0.68879351  0.08309292  0.75217801    -0.58600
In1662     In  0.88482020  0.37070954  0.75235566     1.36900
C1663       C  0.93215688  0.41503736  0.72731311     0.79100
O1664       O  0.82116787  0.39960886  0.76044028    -0.59300
O1665       O  0.87586503  0.41394163  0.77727450    -0.50300
C1666       C  0.83595870  0.32252227  0.73033866     0.71800
O1667       O  0.84422248  0.35760603  0.72587742    -0.45100
C1668       C  0.93452162  0.32622778  0.77580069     0.76500
O1669       O  0.91383207  0.42899544  0.74243047    -0.57000
O1670       O  0.89622800  0.33473886  0.77956699    -0.47100
O1671       O  0.92843861  0.37834672  0.72573862    -0.53400
C1672       C  0.83625135  0.41869461  0.77489385     0.86600
O1673       O  0.85015681  0.31232251  0.74697773    -0.55300
O1674       O  0.94809258  0.34022995  0.75965901    -0.58600
N1675       N  0.54527217  0.29425572  0.15415097    -0.35100
N1676       N  0.98674641  0.32534078  0.18203320    -0.55700
N1677       N  0.01152185  0.26095051  0.20976270    -0.35100
N1678       N  0.57357566  0.23394717  0.18049120    -0.55700
C1679       C  0.53609411  0.32965879  0.14652302     0.28500
C1680       C  0.58168079  0.28214694  0.14557825     0.28500
C1681       C  0.99082034  0.28659232  0.22184465     0.28500
C1682       C  0.53728762  0.23821066  0.22105103     0.28500
C1683       C  0.96951777  0.33734092  0.16470486     0.37100
C1684       C  0.95415413  0.32187183  0.19499894     0.37100
C1685       C  0.58776017  0.21962875  0.16296466     0.37100
C1686       C  0.57319393  0.20369035  0.19328375     0.37100
C1687       C  0.56876046  0.34154118  0.13384838    -0.20400
C1688       C  0.59728401  0.31089933  0.13291982    -0.20400
C1689       C  0.00326793  0.27981387  0.24126647    -0.20400
C1690       C  0.03240660  0.24929703  0.24078903    -0.20400
C1691       C  0.92571303  0.34057727  0.16652978    -0.21400
C1692       C  0.91595457  0.33146399  0.18591054    -0.21400
C1693       C  0.59648392  0.18008176  0.16450233    -0.21400
C1694       C  0.58733685  0.16994283  0.18382169    -0.21400
C1695       C  0.99421711  0.34539191  0.14762069    -0.16800
C1696       C  0.59507555  0.24303009  0.14615042    -0.16800
C1697       C  0.56392949  0.20743135  0.21373673    -0.16800
C1698       C  0.95964371  0.31409184  0.21535046    -0.16800
H1699       H  0.56980144  0.36776103  0.12484502     0.16100
H1700       H  0.62481087  0.30895109  0.12319432     0.16100
H1701       H  0.99277969  0.29516489  0.25445379     0.16100
H1702       H  0.04842690  0.23702844  0.25351091     0.16100
H1703       H  0.90332671  0.34781800  0.15499916     0.14400
H1704       H  0.88435506  0.33097683  0.19249176     0.14400
H1705       H  0.60861846  0.16085518  0.15302343     0.14400
H1706       H  0.59027380  0.14101417  0.19015988     0.14400
H1707       H  0.52358402  0.27591354  0.16146025     0.27700
H1708       H  0.50597160  0.25737354  0.19460474     0.27700
C1709       C  0.68929085  0.18602397  0.06153462     0.14200
C1710       C  0.65864366  0.21248598  0.06874005     0.01100
C1711       C  0.64677112  0.24460615  0.05699145     0.16100
C1712       C  0.66690846  0.25135398  0.03885514     0.25500
C1713       C  0.69992030  0.22680354  0.03244773    -0.40800
C1714       C  0.71003607  0.19326754  0.04345341     0.32600
C1715       C  0.64243916  0.20990868  0.08929089     0.01200
F1716       F  0.61754712  0.27086320  0.06364213    -0.13100
F1717       F  0.74111082  0.16861060  0.03709396    -0.13600
C1718       C  0.67098845  0.21440256  0.10523412     0.16100
C1719       C  0.65552625  0.22237184  0.12430295     0.25500
C1720       C  0.61149624  0.22579320  0.12755296    -0.40700
C1721       C  0.58286319  0.21821442  0.11197446     0.32500
C1722       C  0.59825347  0.21001349  0.09296936     0.14200
F1723       F  0.71381937  0.21444295  0.10201034    -0.13100
F1724       F  0.54006951  0.22146701  0.11492935    -0.13600
F1725       F  0.68343789  0.22988135  0.13922093    -0.15900
F1726       F  0.57014908  0.20474266  0.07787362    -0.14500
F1727       F  0.69989841  0.15398010  0.07229985    -0.14500
F1728       F  0.65538221  0.28278211  0.02783469    -0.15900
C1729       C  0.75413657  0.34349684  0.05853403     0.14200
C1730       C  0.78070959  0.32545954  0.07258540     0.01100
C1731       C  0.79991797  0.28950415  0.06772885     0.16100
C1732       C  0.79205205  0.27163408  0.04929747     0.25500
C1733       C  0.76490842  0.28942377  0.03545040    -0.40800
C1734       C  0.74646732  0.32571623  0.04012120     0.32600
C1735       C  0.78528027  0.34310470  0.09269398     0.01200
F1736       F  0.82620406  0.27172556  0.08085230    -0.13100
F1737       F  0.71992318  0.34334835  0.02706158    -0.13600
C1738       C  0.76967027  0.32301196  0.10947786     0.16100
C1739       C  0.76457864  0.34267532  0.12762397     0.25500
C1740       C  0.77516030  0.38261425  0.12919816    -0.40700
C1741       C  0.79462139  0.40161414  0.11302656     0.32500
C1742       C  0.79978661  0.38200343  0.09491432     0.14200
F1743       F  0.75597125  0.28534105  0.10787033    -0.13100
F1744       F  0.80557394  0.44010815  0.11440179    -0.13600
F1745       F  0.74603591  0.32370699  0.14314004    -0.15900
F1746       F  0.81670486  0.40166436  0.07922181    -0.14500
F1747       F  0.73416365  0.37765488  0.06298406    -0.14500
F1748       F  0.81081781  0.23688455  0.04494522    -0.15900
C1749       C  0.83678270  0.29064897  0.89061923     0.14200
C1750       C  0.85271456  0.30844269  0.90795151     0.01100
C1751       C  0.89298728  0.32698936  0.90736615     0.16100
C1752       C  0.91901522  0.32366961  0.89052749     0.25500
C1753       C  0.90497745  0.30180397  0.87410909    -0.40800
C1754       C  0.86282568  0.28736636  0.87378554     0.32600
C1755       C  0.83130287  0.30121085  0.92727587     0.01200
F1756       F  0.90846479  0.34532490  0.92375259    -0.13100
F1757       F  0.84880152  0.26603882  0.85803606    -0.13600
C1758       C  0.85342618  0.28086410  0.94216617     0.16100
C1759       C  0.83290890  0.27043886  0.95981121     0.25500
C1760       C  0.78970424  0.27930155  0.96270046    -0.40700
C1761       C  0.76753791  0.30008307  0.94806258     0.32500
C1762       C  0.78825656  0.31114419  0.93046672     0.14200
F1763       F  0.89438069  0.26924505  0.93919017    -0.13100
F1764       F  0.72573776  0.30915820  0.95075909    -0.13600
F1765       F  0.85465090  0.25004647  0.97374173    -0.15900
F1766       F  0.76625217  0.33113369  0.91649159    -0.14500
F1767       F  0.79799482  0.27256380  0.89069719    -0.14500
F1768       F  0.95931964  0.33858473  0.89092885    -0.15900
C1769       C  0.75111674  0.15569558  0.88997414     0.14200
C1770       C  0.71835153  0.15215385  0.90424783     0.01100
C1771       C  0.68359683  0.12688111  0.90032774     0.16100
C1772       C  0.68290186  0.10403080  0.88300575     0.25500
C1773       C  0.71782773  0.10480360  0.86982977    -0.40800
C1774       C  0.75121610  0.13173960  0.87310227     0.32600
C1775       C  0.72252007  0.17221594  0.92380300     0.01200
F1776       F  0.65211625  0.12191508  0.91399937    -0.13100
F1777       F  0.78526400  0.13306897  0.86055730    -0.13600
C1778       C  0.68977149  0.19624634  0.93132593     0.16100
C1779       C  0.69456182  0.21523481  0.94968945     0.25500
C1780       C  0.73225781  0.21078129  0.96068066    -0.40700
C1781       C  0.76444631  0.18607745  0.95344556     0.32500
C1782       C  0.75961788  0.16688052  0.93523417     0.14200
F1783       F  0.65365552  0.20210191  0.92068189    -0.13100
F1784       F  0.80050383  0.18032625  0.96415368    -0.13600
F1785       F  0.66285240  0.23865624  0.95656415    -0.15900
F1786       F  0.79098858  0.14247468  0.92890441    -0.14500
F1787       F  0.78405994  0.18119029  0.89282644    -0.14500
F1788       F  0.65005067  0.07854509  0.87996251    -0.15900
C1789       C  0.55768312  0.14128161  0.91219006     0.14200
C1790       C  0.54859467  0.10107458  0.91047515     0.01100
C1791       C  0.04276654  0.08433756  0.89144798     0.16100
C1792       C  0.04244215  0.10849554  0.87462391     0.25500
C1793       C  0.54875559  0.14930626  0.87655989    -0.40800
C1794       C  0.55862511  0.16507588  0.89534463     0.32600
C1795       C  0.53777635  0.07833128  0.92851449     0.01200
F1796       F  0.03367156  0.04557016  0.88943728    -0.13100
F1797       F  0.56451481  0.20431272  0.89761227    -0.13600
C1798       C  0.49841878  0.08491852  0.93799426     0.16100
C1799       C  0.48778567  0.06502964  0.95544027     0.25500
C1800       C  0.51620558  0.03792008  0.96372254    -0.40700
C1801       C  0.05583645  0.03130045  0.95433983     0.32500
C1802       C  0.06641293  0.05111013  0.93670242     0.14200
F1803       F  0.47029124  0.11089598  0.93031890    -0.13100
F1804       F  0.08399321  0.00552750  0.96212720    -0.13600
F1805       F  0.45002335  0.07292672  0.96454976    -0.15900
F1806       F  0.10473406  0.04453340  0.92783202    -0.14500
F1807       F  0.56264878  0.15792645  0.93037110    -0.14500
F1808       F  0.03202951  0.09272787  0.85675609    -0.15900
C1809       C  0.88190282  0.97675853  0.94458319     0.14200
C1810       C  0.90462541  0.95581158  0.93003192     0.01100
C1811       C  0.93756413  0.43524321  0.93750128     0.16100
C1812       C  0.95572074  0.44999324  0.95490208     0.25500
C1813       C  0.94527925  0.97947541  0.96512308    -0.40800
C1814       C  0.90209652  0.98841824  0.96208066     0.32600
C1815       C  0.87730550  0.43359105  0.91308493     0.01200
F1816       F  0.96170288  0.41287059  0.92516026    -0.13100
F1817       F  0.88003010  0.00958358  0.97574826    -0.13600
C1818       C  0.89946418  0.97056198  0.89419154     0.16100
C1819       C  0.87606954  0.97038566  0.87666092     0.25500
C1820       C  0.83407263  0.43425065  0.87681261    -0.40700
C1821       C  0.81475456  0.41686051  0.89346922     0.32500
C1822       C  0.83643191  0.41637607  0.91156116     0.14200
F1823       F  0.93398288  0.99470453  0.89582118    -0.08300
F1824       F  0.77319480  0.40531096  0.89281162    -0.13600
F1825       F  0.88818777  0.99462800  0.86167651    -0.15900
F1826       F  0.81604433  0.40265414  0.92797483    -0.14500
F1827       F  0.84075896  0.98740557  0.94141987    -0.14500
F1828       F  0.99691203  0.44124770  0.95921043    -0.15900
C1829       C  0.56615914  0.06026194  0.06102588     0.14200
C1830       C  0.57869520  0.02845345  0.07273381     0.01100
C1831       C  0.56576194  0.49610023  0.06432432     0.16100
C1832       C  0.54323707  0.49025406  0.04673735     0.25500
C1833       C  0.54104780  0.01506371  0.03557749    -0.40800
C1834       C  0.54738396  0.05362971  0.04252248     0.32600
C1835       C  0.59731274  0.03477633  0.09251636     0.01200
F1836       F  0.58511842  0.46514945  0.07306848    -0.13100
F1837       F  0.53270682  0.08462061  0.03202050    -0.13600
C1838       C  0.57722685  0.01889907  0.10940131     0.16100
C1839       C  0.59890481  0.01762711  0.12743253     0.25500
C1840       C  0.64124382  0.03109964  0.12852636    -0.40700
C1841       C  0.65548513  0.54092265  0.11073485     0.32500
C1842       C  0.63331358  0.54516427  0.09293023     0.14200
F1843       F  0.53797530  0.00202945  0.10804845    -0.13100
F1844       F  0.69870743  0.54470350  0.11078590    -0.13600
F1845       F  0.58045260  0.99942441  0.14321352    -0.15900
F1846       F  0.65530886  0.55314770  0.07599710    -0.14500
F1847       F  0.57042615  0.09753302  0.06790303    -0.14500
F1848       F  0.54114201  0.45373100  0.03871603    -0.15900
C1849       C  0.92998501  0.41015779  0.05941388     0.14200
C1850       C  0.93795492  0.42996893  0.07740710     0.01100
C1851       C  0.44186660  0.47118779  0.07691010     0.16100
C1852       C  0.44207371  0.49103192  0.05874621     0.25500
C1853       C  0.94390587  0.46997625  0.04075088    -0.40800
C1854       C  0.93557529  0.42931734  0.04132189     0.32600
C1855       C  0.94824255  0.40703860  0.09566763     0.01200
F1856       F  0.44843285  0.49235149  0.09369068    -0.13100
F1857       F  0.93593304  0.40725245  0.02452636    -0.13600
C1858       C  0.97420754  0.37355357  0.09401494     0.16100
C1859       C  0.98485763  0.35180242  0.11066339     0.25500
C1860       C  0.97598022  0.36596599  0.12989944    -0.40700
C1861       C  0.95083943  0.40000750  0.13173669     0.32500
C1862       C  0.93511543  0.41893349  0.11480713     0.14200
F1863       F  0.99123113  0.36241912  0.07632023    -0.13100
F1864       F  0.94212524  0.41560615  0.14984407    -0.13600
F1865       F  0.00496808  0.31706573  0.10779743    -0.15900
F1866       F  0.90721254  0.44885277  0.11725393    -0.14500
F1867       F  0.91985694  0.37136937  0.05925067    -0.14500
F1868       F  0.44279579  0.53079141  0.05879529    -0.15900
C1869       C  0.88664026  0.30597920  0.55425040     0.14200
C1870       C  0.91265707  0.31226875  0.57099602     0.01100
C1871       C  0.95731786  0.31369250  0.56846142     0.16100
C1872       C  0.97565527  0.30485327  0.55003935     0.25500
C1873       C  0.94959546  0.29510412  0.53381579    -0.40800
C1874       C  0.90503910  0.29853683  0.53569461     0.32600
C1875       C  0.89357859  0.31276586  0.59123341     0.01200
F1876       F  0.98323358  0.32168549  0.58408626    -0.13100
F1877       F  0.87920976  0.29011120  0.52008695    -0.13600
C1878       C  0.90778403  0.28597881  0.60559329     0.16100
C1879       C  0.88625071  0.28225679  0.62367804     0.25500
C1880       C  0.85049968  0.30555450  0.62789516    -0.40700
C1881       C  0.83804380  0.33416454  0.61421485     0.32500
C1882       C  0.85869889  0.33703146  0.59582418     0.14200
F1883       F  0.94019694  0.26093549  0.60147946    -0.13100
F1884       F  0.80337940  0.35676424  0.61796707    -0.13600
F1885       F  0.89832278  0.25377440  0.63648671    -0.15900
F1886       F  0.84285003  0.36170401  0.58203505    -0.14500
F1887       F  0.84350248  0.30335806  0.55611650    -0.14500
F1888       F  0.01885806  0.30373390  0.54826138    -0.15900
C1889       C  0.58579583  0.24385567  0.43876613     0.14200
C1890       C  0.57543986  0.20867452  0.42893013     0.01100
C1891       C  0.54247995  0.18483225  0.43655278     0.16100
C1892       C  0.52014351  0.19612949  0.45376796     0.25500
C1893       C  0.52996710  0.23177976  0.46332832    -0.40800
C1894       C  0.56329683  0.25528665  0.45577670     0.32600
C1895       C  0.59870080  0.19811091  0.41044536     0.01200
F1896       F  0.53203464  0.15069859  0.42732281    -0.13100
F1897       F  0.57416979  0.28936369  0.46497737    -0.13600
C1898       C  0.64240958  0.18911164  0.41118019     0.16100
C1899       C  0.66700879  0.18870818  0.39377222     0.25500
C1900       C  0.64827829  0.19756560  0.37537324    -0.40700
C1901       C  0.60374610  0.20227655  0.37441394     0.32500
C1902       C  0.57915592  0.20296563  0.39187195     0.14200
F1903       F  0.66193610  0.18415377  0.42894258    -0.13100
F1904       F  0.58498781  0.21108844  0.35687419    -0.13600
F1905       F  0.71000534  0.18444976  0.39513292    -0.15900
F1906       F  0.53720691  0.21258227  0.39081793    -0.14500
F1907       F  0.61727672  0.26757556  0.43161795    -0.14500
F1908       F  0.48834065  0.17276864  0.46086050    -0.15900
C1909       C  0.45250121  0.34853241  0.39015036     0.14200
C1910       C  0.93919554  0.36305248  0.40838827     0.01100
C1911       C  0.92229455  0.40114875  0.40939784     0.16100
C1912       C  0.92431374  0.42572110  0.39284276     0.25500
C1913       C  0.94270831  0.41227389  0.37507197    -0.40800
C1914       C  0.45407932  0.37268305  0.37344646     0.32600
C1915       C  0.94848574  0.34121547  0.42682209     0.01200
F1916       F  0.90697206  0.41547424  0.42683213    -0.13100
F1917       F  0.47134774  0.35867648  0.35634831    -0.13600
C1918       C  0.47523559  0.35908269  0.44130719     0.16100
C1919       C  0.48647675  0.33837628  0.45831176     0.25500
C1920       C  0.47130152  0.30005138  0.46127638    -0.40700
C1921       C  0.94458160  0.28190024  0.44675383     0.32500
C1922       C  0.93339236  0.30271139  0.42966616     0.14200
F1923       F  0.49168219  0.39561855  0.43855339    -0.13100
F1924       F  0.92869442  0.24518318  0.44951495    -0.13600
F1925       F  0.51260370  0.35558215  0.47186500    -0.15900
F1926       F  0.90735038  0.28558119  0.41605646    -0.14500
F1927       F  0.46864665  0.31176957  0.38884224    -0.14500
F1928       F  0.91202699  0.46366012  0.39462243    -0.15900
C1929       C  0.71671273  0.07202802  0.43141308     0.14200
C1930       C  0.68303903  0.04871926  0.42413366     0.01100
C1931       C  0.65928241  0.52189411  0.43720715     0.16100
C1932       C  0.68041073  0.51103933  0.45453565     0.25500
C1933       C  0.72271290  0.02958544  0.46037822    -0.40800
C1934       C  0.73623572  0.06271152  0.44955511     0.32600
C1935       C  0.66171869  0.05721908  0.40507659     0.01200
F1936       F  0.62507982  0.50038858  0.43108267    -0.13100
F1937       F  0.76914392  0.08517620  0.45623172    -0.13600
C1938       C  0.66749227  0.55381204  0.38895925     0.16100
C1939       C  0.64090863  0.55128602  0.37228380     0.25500
C1940       C  0.60781135  0.05179043  0.37184312    -0.40700
C1941       C  0.59488078  0.07298073  0.38870199     0.32500
C1942       C  0.62185414  0.07591165  0.40518583     0.14200
F1943       F  0.70874766  0.54211918  0.38739011    -0.13100
F1944       F  0.55468957  0.08753088  0.38987879    -0.13600
F1945       F  0.65692072  0.53693279  0.35499271    -0.15900
F1946       F  0.60755411  0.09380680  0.42193205    -0.14500
F1947       F  0.73079518  0.10344886  0.42088991    -0.14500
F1948       F  0.66575216  0.47961083  0.46490103    -0.15900
C1949       C  0.80900046  0.35923768  0.40816765     0.14200
C1950       C  0.79253554  0.39741528  0.40760974     0.01100
C1951       C  0.77908086  0.41318964  0.38944734     0.16100
C1952       C  0.77801353  0.38960391  0.37248146     0.25500
C1953       C  0.79053372  0.35026013  0.37359284    -0.40800
C1954       C  0.80795347  0.33574111  0.39122047     0.32600
C1955       C  0.78431321  0.41868053  0.42628172     0.01200
F1956       F  0.76317369  0.45008122  0.38857619    -0.13100
F1957       F  0.82007917  0.29768914  0.39243868    -0.13600
C1958       C  0.80286231  0.45556670  0.42971908     0.16100
C1959       C  0.79397846  0.47579380  0.44725966     0.25500
C1960       C  0.76633625  0.45943756  0.46157409    -0.40700
C1961       C  0.74789331  0.42245695  0.45818388     0.32500
C1962       C  0.75646812  0.40237365  0.44054061     0.14200
F1963       F  0.82987640  0.47175622  0.41618150    -0.13100
F1964       F  0.72086533  0.40629920  0.47173294    -0.13600
F1965       F  0.81287649  0.51117971  0.45044807    -0.15900
F1966       F  0.73672683  0.36744025  0.43709858    -0.14500
F1967       F  0.82324005  0.34389610  0.42547190    -0.14500
F1968       F  0.76052915  0.40377309  0.35557011    -0.15900
C1969       C  0.71921475  0.10364358  0.60164932     0.14200
C1970       C  0.75474836  0.11059286  0.58904205     0.01100
C1971       C  0.78724782  0.13598747  0.59575291     0.16100
C1972       C  0.78425652  0.15399949  0.61430668     0.25500
C1973       C  0.74714867  0.14976492  0.62612267    -0.40800
C1974       C  0.71490112  0.12392018  0.61973440     0.32600
C1975       C  0.75754782  0.09249910  0.56879351     0.01200
F1976       F  0.82091426  0.14549237  0.58388982    -0.13100
F1977       F  0.67832646  0.11980359  0.63044177    -0.13600
C1978       C  0.72195552  0.09233604  0.55602665     0.16100
C1979       C  0.72342756  0.07247675  0.53780276     0.25500
C1980       C  0.76129899  0.05410432  0.53141213    -0.40700
C1981       C  0.79836643  0.05883647  0.54293704     0.32500
C1982       C  0.79600816  0.07582651  0.56184737     0.14200
F1983       F  0.68542119  0.11104655  0.56124973    -0.13100
F1984       F  0.83614294  0.04383096  0.53661575    -0.13600
F1985       F  0.68706269  0.06934206  0.52697732    -0.15900
F1986       F  0.83076997  0.07365869  0.57376822    -0.14500
F1987       F  0.68818823  0.07771595  0.59634517    -0.14500
F1988       F  0.81670012  0.17799961  0.62017292    -0.15900
C1989       C  0.95865643  0.19376705  0.56597309     0.14200
C1990       C  0.49826597  0.18016459  0.57333960     0.01100
C1991       C  0.53506747  0.18495140  0.56131554     0.16100
C1992       C  0.53285775  0.20468101  0.54305640     0.25500
C1993       C  0.49339381  0.21769367  0.53569696    -0.40800
C1994       C  0.95595085  0.20969070  0.54696233     0.32600
C1995       C  0.49978645  0.15847901  0.59273321     0.01200
F1996       F  0.57309140  0.16966698  0.56687647    -0.13100
F1997       F  0.91669582  0.21708131  0.53945032    -0.13600
C1998       C  0.96727056  0.13066455  0.59747189     0.16100
C1999       C  0.96813460  0.11011500  0.61530545     0.25500
C2000       C  0.50396810  0.11290559  0.62802039    -0.40700
C2001       C  0.53622676  0.14051947  0.62358678     0.32500
C2002       C  0.53335415  0.16407895  0.60650113     0.14200
F2003       F  0.93607931  0.12134852  0.58429503    -0.13100
F2004       F  0.57136685  0.14357259  0.63524008    -0.13600
F2005       F  0.93541658  0.08499638  0.61942533    -0.15900
F2006       F  0.56376216  0.19195830  0.60336387    -0.14500
F2007       F  0.92251545  0.19224119  0.57716942    -0.14500
F2008       F  0.56939923  0.21108442  0.53259980    -0.15900
C2009       C  0.90469942  0.93123320  0.58810800     0.14200
C2010       C  0.86348083  0.44139927  0.58822344     0.01100
C2011       C  0.84514689  0.44379834  0.60748531     0.16100
C2012       C  0.87103754  0.44643359  0.62436175     0.25500
C2013       C  0.91503864  0.43855695  0.62316624    -0.40800
C2014       C  0.92816627  0.92723744  0.60560293     0.32600
C2015       C  0.83699538  0.44928766  0.56965166     0.01200
F2016       F  0.80225050  0.44325718  0.61035575    -0.13100
F2017       F  0.96849721  0.91282036  0.60470708    -0.13600
C2018       C  0.84816251  0.43399901  0.55073901     0.16100
C2019       C  0.82855517  0.44771169  0.53339389     0.25500
C2020       C  0.79160103  0.47129897  0.53431466    -0.40700
C2021       C  0.77395889  0.97684612  0.55287936     0.32500
C2022       C  0.79756608  0.97095123  0.57017707     0.14200
F2023       F  0.87728344  0.40506922  0.54859706    -0.13100
F2024       F  0.73482541  0.99346103  0.55444725    -0.13600
F2025       F  0.84670657  0.43800905  0.51574843    -0.15900
F2026       F  0.78577422  0.99210242  0.58632587    -0.14500
F2027       F  0.92714004  0.92970124  0.57090767    -0.14500
F2028       F  0.85295621  0.45808884  0.64172459    -0.15900
In2029     In  0.87621099  0.87315095  0.25153876     1.36900
C2030       C  0.82527951  0.82712375  0.27390504     0.79100
O2031       O  0.83705154  0.92797931  0.24525682    -0.59300
O2032       O  0.83008958  0.87885727  0.22637948    -0.50300
C2033       C  0.92758117  0.91870647  0.27398997     0.71800
O2034       O  0.91506824  0.88482845  0.27883640    -0.45100
C2035       C  0.93195540  0.83389012  0.22856439     0.76500
O2036       O  0.83366098  0.86253810  0.27780510    -0.57000
O2037       O  0.91588349  0.86641915  0.22408919    -0.47100
O2038       O  0.84082585  0.81546509  0.25768179    -0.53400
C2039       C  0.82058241  0.91414787  0.22971236     0.86600
O2040       O  0.91620878  0.92858167  0.25683235    -0.55300
O2041       O  0.92108679  0.82185477  0.24549681    -0.58600
N2042       N  0.49529323  0.00301497  0.70691763    -0.35100
N2043       N  0.95783611  0.95415254  0.67536785    -0.55700
N2044       N  0.98049578  0.51229646  0.64846937    -0.35100
N2045       N  0.52101231  0.56057180  0.67830296    -0.55700
C2046       C  0.98575453  0.96944880  0.71697102     0.28500
C2047       C  0.52480301  0.52157794  0.71796372     0.28500
C2048       C  0.97371398  0.48204283  0.63583363     0.28500
C2049       C  0.00197548  0.54028642  0.63833233     0.28500
C2050       C  0.94033231  0.93638238  0.69142285     0.37100
C2051       C  0.93455660  0.94243884  0.65944101     0.37100
C2052       C  0.52932217  0.57917578  0.69553321     0.37100
C2053       C  0.51234807  0.58842316  0.66469393     0.37100
C2054       C  0.50906571  0.96914121  0.73443674    -0.20400
C2055       C  0.53382865  0.00284240  0.73471658    -0.20400
C2056       C  0.99257784  0.49101392  0.61761318    -0.20400
C2057       C  0.01076342  0.52743165  0.61934079    -0.20400
C2058       C  0.90642910  0.91271975  0.68549043    -0.21400
C2059       C  0.90350208  0.91578331  0.66528491    -0.21400
C2060       C  0.52645144  0.61946241  0.69274301    -0.21400
C2061       C  0.51480194  0.62520375  0.67325983    -0.21400
C2062       C  0.95501183  0.94055368  0.71126582    -0.16800
C2063       C  0.54150485  0.55958072  0.71313848    -0.16800
C2064       C  0.50490166  0.57979486  0.64453436    -0.16800
C2065       C  0.94138264  0.95546869  0.63970222    -0.16800
H2066       H  0.50822378  0.94685564  0.74583064     0.16100
H2067       H  0.55462309  0.01149059  0.74674389     0.16100
H2068       H  0.99237244  0.47494622  0.60388951     0.16100
H2069       H  0.02590485  0.54388653  0.60750031     0.16100
H2070       H  0.88504042  0.89564561  0.69466173     0.14400
H2071       H  0.88047685  0.90057133  0.65608438     0.14400
H2072       H  0.53043841  0.64257132  0.70357613     0.14400
H2073       H  0.50913437  0.65318181  0.66627114     0.14400
H2074       H  0.98059859  0.51011890  0.69426758     0.27700
H2075       H  0.96417585  0.51704578  0.66175735     0.27700
C2076       C  0.75646116  0.52813795  0.51449337     0.03800
C2077       C  0.77213431  0.48873658  0.51569098     0.03800
C2078       C  0.77532379  0.96390350  0.49801483    -0.16800
C2079       C  0.76350767  0.97932284  0.47966377     0.03800
C2080       C  0.74507616  0.01682191  0.47872787     0.03800
C2081       C  0.73943255  0.54207308  0.49648835    -0.16800
H2082       H  0.72614684  0.57130523  0.49581609     0.05800
H2083       H  0.78561997  0.93372570  0.49847164     0.05800
N2084       N  0.51844511  0.98809307  0.35321948    -0.35100
N2085       N  0.55200337  0.53923403  0.32362816    -0.55700
N2086       N  0.99849935  0.50238306  0.29354154    -0.35100
N2087       N  0.96777583  0.94799226  0.32354251    -0.55700
C2088       C  0.55385320  0.00163179  0.36242754     0.28500
C2089       C  0.50547066  0.95575050  0.36307139     0.28500
C2090       C  0.52860488  0.52035095  0.28191530     0.28500
C2091       C  0.98249143  0.97247913  0.28147316     0.28500
C2092       C  0.56409144  0.55920377  0.34008848     0.37100
C2093       C  0.55843222  0.56372983  0.30816800     0.37100
C2094       C  0.94783069  0.93568720  0.34028440     0.37100
C2095       C  0.94050358  0.94073237  0.30849469     0.37100
C2096       C  0.56341101  0.97769178  0.37839477    -0.20400
C2097       C  0.53278810  0.94863973  0.37879522    -0.20400
C2098       C  0.02927058  0.50305861  0.26356560    -0.20400
C2099       C  0.99923480  0.47306838  0.26386038    -0.20400
C2100       C  0.57726371  0.59661711  0.33522317    -0.21400
C2101       C  0.57392147  0.59954782  0.31495578    -0.21400
C2102       C  0.90761494  0.92122425  0.33602131    -0.21400
C2103       C  0.90282409  0.92443684  0.31585346    -0.21400
C2104       C  0.56686752  0.54253782  0.35911775    -0.16800
C2105       C  0.96742122  0.93418268  0.35900145    -0.16800
C2106       C  0.95097874  0.94498459  0.28814343    -0.16800
C2107       C  0.55413749  0.55289875  0.28796451    -0.16800
H2108       H  0.58921105  0.98116283  0.38891103     0.16100
H2109       H  0.53058323  0.92528700  0.38959657     0.16100
H2110       H  0.04964242  0.51077253  0.25114393     0.16100
H2111       H  0.99220886  0.45337169  0.25167506     0.16100
H2112       H  0.58722185  0.61945512  0.34535156     0.14400
H2113       H  0.58171123  0.62519572  0.30622892     0.14400
H2114       H  0.88429916  0.90981394  0.34641695     0.14400
H2115       H  0.87472197  0.91577839  0.30758424     0.14400
H2116       H  0.50118166  0.00260833  0.34233282     0.27700
H2117       H  0.49130804  0.00877022  0.30713775     0.27700
C2118       C  0.48445055  0.73227930  0.51662741     0.03800
C2119       C  0.96410030  0.76932659  0.51548548     0.03800
C2120       C  0.96102669  0.78811351  0.49714082    -0.16800
C2121       C  0.47898211  0.77175276  0.47992616     0.03800
C2122       C  0.50190270  0.73630814  0.48116037     0.03800
C2123       C  0.50383982  0.71655339  0.49944361    -0.16800
H2124       H  0.52094429  0.68910278  0.50033409     0.05800
H2125       H  0.94411992  0.81568742  0.49615360     0.05800
N2126       N  0.76435170  0.74223977  0.65019370    -0.35100
N2127       N  0.80466028  0.79066950  0.67914183    -0.55700
N2128       N  0.76951690  0.73739300  0.70970348    -0.35100
N2129       N  0.72666945  0.69084789  0.67821918    -0.55700
C2130       C  0.77538665  0.77372634  0.63929746     0.28500
C2131       C  0.73778885  0.72011855  0.63915333     0.28500
C2132       C  0.78372778  0.76834846  0.72066581     0.28500
C2133       C  0.73816394  0.71859024  0.72011668     0.28500
C2134       C  0.82755920  0.80038406  0.66276934     0.37100
C2135       C  0.82986288  0.79865173  0.69482609     0.37100
C2136       C  0.72870306  0.66636926  0.66238489     0.37100
C2137       C  0.72249798  0.66825752  0.69445033     0.37100
C2138       C  0.75357392  0.77272655  0.62139204    -0.20400
C2139       C  0.72959269  0.73875554  0.62134989    -0.20400
C2140       C  0.76166777  0.76902986  0.73850551    -0.20400
C2141       C  0.73269346  0.73805707  0.73810293    -0.20400
C2142       C  0.86716495  0.81521179  0.66802432    -0.21400
C2143       C  0.86868561  0.81404382  0.68838399    -0.21400
C2144       C  0.72582467  0.62779467  0.66854881    -0.21400
C2145       C  0.72104123  0.62900786  0.68890832    -0.21400
C2146       C  0.81249030  0.79580402  0.64320937    -0.16800
C2147       C  0.73215255  0.67985947  0.64264853    -0.16800
C2148       C  0.71672423  0.68330773  0.71387264    -0.16800
C2149       C  0.81672802  0.79510033  0.71483258    -0.16800
H2150       H  0.75739124  0.79226429  0.60890867     0.16100
H2151       H  0.71191320  0.72702404  0.60887423     0.16100
H2152       H  0.76552771  0.78999870  0.75045602     0.16100
H2153       H  0.71037197  0.73109716  0.74985899     0.16100
H2154       H  0.89238791  0.82537563  0.65824295     0.14400
H2155       H  0.89557349  0.82295236  0.69740678     0.14400
H2156       H  0.72678913  0.60163916  0.65945323     0.14400
H2157       H  0.71786108  0.60386276  0.69856915     0.14400
H2158       H  0.78190938  0.73158894  0.66209225     0.27700
H2159       H  0.78301219  0.72788401  0.69640963     0.27700
N2160       N  0.72984777  0.76497201  0.35346133    -0.35100
N2161       N  0.78288926  0.80132056  0.32335028    -0.55700
N2162       N  0.75096375  0.74651748  0.29367311    -0.35100
N2163       N  0.69339956  0.71343389  0.32433338    -0.55700
C2164       C  0.74191205  0.79856561  0.36247602     0.28500
C2165       C  0.69499199  0.75155718  0.36322453     0.28500
C2166       C  0.77022270  0.77387025  0.28195055     0.28500
C2167       C  0.72251375  0.72624681  0.28240898     0.28500
C2168       C  0.80107471  0.81604830  0.33993051     0.37100
C2169       C  0.81110033  0.80758487  0.30852262     0.37100
C2170       C  0.67959387  0.69577039  0.34120211     0.37100
C2171       C  0.68906913  0.68683570  0.30958301     0.37100
C2172       C  0.71432281  0.80678950  0.37809264    -0.20400
C2173       C  0.68462485  0.77699427  0.37857699    -0.20400
C2174       C  0.75445774  0.77030641  0.26283597    -0.20400
C2175       C  0.72442687  0.74034020  0.26311545    -0.20400
C2176       C  0.84120767  0.83108379  0.33582485    -0.21400
C2177       C  0.84768825  0.82573922  0.31585189    -0.21400
C2178       C  0.66738169  0.65760474  0.33732653    -0.21400
C2179       C  0.67297178  0.65192942  0.31723294    -0.21400
C2180       C  0.77970947  0.81947467  0.35816903    -0.16800
C2181       C  0.67498700  0.71517443  0.35960107    -0.16800
C2182       C  0.69573638  0.69496512  0.28915478    -0.16800
C2183       C  0.80187418  0.80141880  0.28826372    -0.16800
H2184       H  0.71603504  0.83116782  0.38838420     0.16100
H2185       H  0.65893681  0.77399096  0.38928050     0.16100
H2186       H  0.76313190  0.78776985  0.25004817     0.16100
H2187       H  0.70572545  0.73056994  0.25055022     0.16100
H2188       H  0.86321525  0.84453727  0.34616005     0.14400
H2189       H  0.87592261  0.83456781  0.30764418     0.14400
H2190       H  0.65640562  0.63615658  0.34798507     0.14400
H2191       H  0.66630295  0.62509080  0.30919050     0.14400
H2192       H  0.74773470  0.74945882  0.34304634     0.27700
H2193       H  0.75888677  0.74007217  0.30827606     0.27700
C2194       C  0.97543457  0.98543295  0.01916691     0.03800
C2195       C  0.49413558  0.51399458  0.02040080     0.03800
C2196       C  0.50684770  0.52910229  0.00185972    -0.16800
C2197       C  0.98611657  0.51734233  0.98428430     0.03800
C2198       C  0.95128796  0.49092025  0.98563423     0.03800
C2199       C  0.95251760  0.97881810  0.00160594    -0.16800
H2200       H  0.92316276  0.96182380  0.00201883     0.05800
H2201       H  0.53412473  0.54879062  0.00097584     0.05800
N2202       N  0.76503910  0.50205807  0.79270603    -0.35100
N2203       N  0.72926251  0.55724764  0.82235848    -0.55700
N2204       N  0.76329795  0.51052434  0.85425825    -0.35100
N2205       N  0.80140754  0.95797667  0.82236741    -0.55700
C2206       C  0.73652650  0.52130748  0.78115372     0.28500
C2207       C  0.78137406  0.97177016  0.77967770     0.28500
C2208       C  0.75394243  0.54364052  0.86462220     0.28500
C2209       C  0.78668321  0.48749955  0.86632905     0.28500
C2210       C  0.71680918  0.57457673  0.80536389     0.37100
C2211       C  0.72468684  0.58414918  0.83704215     0.37100
C2212       C  0.82275077  0.94073918  0.80719937     0.37100
C2213       C  0.82011593  0.94551738  0.83929653     0.37100
C2214       C  0.73324226  0.00122815  0.76046108    -0.20400
C2215       C  0.76243244  0.97074405  0.76110518    -0.20400
C2216       C  0.76970562  0.54048265  0.88374418    -0.20400
C2217       C  0.79031655  0.50544447  0.88480976    -0.20400
C2218       C  0.70504821  0.61304393  0.80932865    -0.21400
C2219       C  0.70975790  0.61895964  0.82934356    -0.21400
C2220       C  0.85346090  0.91567091  0.81479519    -0.21400
C2221       C  0.85208873  0.91913671  0.83500010    -0.21400
C2222       C  0.71345495  0.55591113  0.78649950    -0.16800
C2223       C  0.81334317  0.94527810  0.78668184    -0.16800
C2224       C  0.80865513  0.95693610  0.85874971    -0.16800
C2225       C  0.73460005  0.57818990  0.85726718    -0.16800
H2226       H  0.71507929  0.51030687  0.75025717     0.16100
H2227       H  0.76841765  0.94990763  0.74930572     0.16100
H2228       H  0.76841319  0.56196989  0.89557437     0.16100
H2229       H  0.80767864  0.49547020  0.89765608     0.16100
H2230       H  0.69461685  0.63493003  0.79885255     0.14400
H2231       H  0.70331467  0.64593751  0.83726673     0.14400
H2232       H  0.87419447  0.89598591  0.80683100     0.14400
H2233       H  0.87168240  0.90339099  0.84542093     0.14400
H2234       H  0.77571972  0.51110737  0.80655683     0.27700
H2235       H  0.75373294  0.50327304  0.84000221     0.27700
N2236       N  0.98873337  0.72561099  0.85374302    -0.35100
N2237       N  0.53456867  0.68253639  0.82360582    -0.55700
N2238       N  0.51256320  0.74318686  0.79407215    -0.35100
N2239       N  0.96232944  0.78263958  0.82452084    -0.55700
C2240       C  0.99456452  0.69115797  0.86321100     0.28500
C2241       C  0.95828014  0.74523575  0.86390181     0.28500
C2242       C  0.52950667  0.71475871  0.78234936     0.28500
C2243       C  0.98698898  0.76592503  0.78261200     0.28500
C2244       C  0.54687569  0.66202473  0.83981182     0.37100
C2245       C  0.56142372  0.67238040  0.80872618     0.37100
C2246       C  0.95121622  0.80191987  0.84129551     0.37100
C2247       C  0.96011544  0.80895421  0.80965833     0.37100
C2248       C  0.96769451  0.68898893  0.87958737    -0.20400
C2249       C  0.94496913  0.72315226  0.88009188    -0.20400
C2250       C  0.51512861  0.71989241  0.76309939    -0.20400
C2251       C  0.48797828  0.75179079  0.76330858    -0.20400
C2252       C  0.58133763  0.63854253  0.83527119    -0.21400
C2253       C  0.59081841  0.64532861  0.81567673    -0.21400
C2254       C  0.94249360  0.84071762  0.83721233    -0.21400
C2255       C  0.94834103  0.84526773  0.81713423    -0.21400
C2256       C  0.52612673  0.66309199  0.85843174    -0.16800
C2257       C  0.94439392  0.78364906  0.85971866    -0.16800
C2258       C  0.96351242  0.79936629  0.78928924    -0.16800
C2259       C  0.55762562  0.68446999  0.78862789    -0.16800
H2260       H  0.96521774  0.66554091  0.89032469     0.16100
H2261       H  0.92179301  0.73091228  0.89136422     0.16100
H2262       H  0.52262553  0.70196217  0.75028819     0.16100
H2263       H  0.47095736  0.76302707  0.75062803     0.16100
H2264       H  0.59795082  0.61872927  0.84505481     0.14400
H2265       H  0.61633652  0.63151330  0.80750707     0.14400
H2266       H  0.93264503  0.86312473  0.84761459     0.14400
H2267       H  0.94428143  0.87214632  0.80891049     0.14400
H2268       H  0.00784997  0.73713530  0.84257689     0.27700
H2269       H  0.02094059  0.74836564  0.80873356     0.27700
In2270     In  0.62588616  0.62450485  0.24991533     1.36900
C2271       C  0.66736694  0.57209297  0.22683056     0.79100
O2272       O  0.68653254  0.65760129  0.25861377    -0.59300
O2273       O  0.63262961  0.66126250  0.27749236    -0.50300
C2274       C  0.58780290  0.67963196  0.22702863     0.71800
O2275       O  0.62463442  0.66614267  0.22393033    -0.45100
C2276       C  0.57969905  0.57597330  0.27324786     0.76500
O2277       O  0.62897592  0.58194366  0.22433546    -0.57000
O2278       O  0.61809424  0.58531191  0.27641145    -0.47100
O2279       O  0.68471539  0.58830847  0.24159609    -0.53400
C2280       C  0.67109573  0.67085809  0.27457698     0.86600
O2281       O  0.57008465  0.66541857  0.24224990    -0.55300
O2282       O  0.56484719  0.58995239  0.25740535    -0.58600
N2283       N  0.72653074  0.96998547  0.15013199    -0.35100
N2284       N  0.68154108  0.52029550  0.17896707    -0.55700
N2285       N  0.74237245  0.49163586  0.20834031    -0.35100
N2286       N  0.77861711  0.93544323  0.17978664    -0.55700
C2287       C  0.69081410  0.98120815  0.14069580     0.28500
C2288       C  0.74135468  0.93810759  0.14048054     0.28500
C2289       C  0.71679002  0.51453347  0.21981764     0.28500
C2290       C  0.76433823  0.96532592  0.22143804     0.28500
C2291       C  0.66571848  0.53515123  0.16194585     0.37100
C2292       C  0.68083260  0.54966647  0.19239989     0.37100
C2293       C  0.79950222  0.92307969  0.16328809     0.37100
C2294       C  0.80608448  0.93119908  0.19497005     0.37100
C2295       C  0.68257605  0.95591421  0.12494635    -0.20400
C2296       C  0.71458753  0.92860229  0.12483274    -0.20400
C2297       C  0.72159275  0.50375962  0.23950342    -0.20400
C2298       C  0.75052018  0.47322891  0.23986257    -0.20400
C2299       C  0.65505883  0.57413609  0.16447117    -0.21400
C2300       C  0.66495501  0.58340166  0.18378981    -0.21400
C2301       C  0.84030238  0.91143369  0.16787444    -0.21400
C2302       C  0.84456568  0.91626424  0.18799744    -0.21400
C2303       C  0.65834922  0.51286201  0.14467193    -0.16800
C2304       C  0.78073064  0.92017407  0.14441338    -0.16800
C2305       C  0.79581406  0.93770595  0.21518291    -0.16800
C2306       C  0.68991669  0.54507420  0.21278344    -0.16800
H2307       H  0.65700743  0.95766222  0.11422894     0.16100
H2308       H  0.71833480  0.90508401  0.11415775     0.16100
H2309       H  0.70556428  0.51615903  0.25229226     0.16100
H2310       H  0.76082141  0.45781256  0.25298620     0.16100
H2311       H  0.64140749  0.59363842  0.15360041     0.14400
H2312       H  0.66125527  0.61171174  0.19078355     0.14400
H2313       H  0.86429641  0.90111487  0.15765965     0.14400
H2314       H  0.87297857  0.91006692  0.19648122     0.14400
H2315       H  0.74322676  0.98646117  0.16060464     0.27700
H2316       H  0.75230924  0.99677908  0.19470489     0.27700
C2317       C  0.79848203  0.76040815  0.98475688     0.03800
C2318       C  0.76760776  0.73005618  0.98317833     0.03800
C2319       C  0.74580127  0.71778315  0.00033912    -0.16800
C2320       C  0.75452739  0.73527655  0.01880124     0.03800
C2321       C  0.78562351  0.76536571  0.02027587     0.03800
C2322       C  0.80767454  0.77725371  0.00324757    -0.16800
H2323       H  0.83077269  0.80102139  0.00422823     0.05800
H2324       H  0.72172759  0.69487485  0.99930977     0.05800
In2325     In  0.63113582  0.61805240  0.74921680     1.36900
C2326       C  0.68608469  0.66114146  0.72702495     0.79100
O2327       O  0.58275073  0.62474095  0.77357970    -0.59300
O2328       O  0.60643897  0.67697011  0.76062035    -0.50300
C2329       C  0.57306895  0.57964602  0.72654097     0.71800
O2330       O  0.57321177  0.61602818  0.72955473    -0.45100
C2331       C  0.68324267  0.57465451  0.77220217     0.76500
O2332       O  0.65902296  0.63721999  0.72005902    -0.57000
O2333       O  0.64865977  0.58952544  0.77795787    -0.47100
O2334       O  0.68440880  0.66394815  0.74568630    -0.53400
C2335       C  0.58236612  0.66166271  0.77358259     0.86600
O2336       O  0.60335136  0.56232046  0.73510992    -0.55300
O2337       O  0.69029892  0.57946998  0.75394492    -0.58600
In2338     In  0.88819828  0.86945112  0.75160646     1.36900
C2339       C  0.93548805  0.91429228  0.72668126     0.79100
O2340       O  0.82305217  0.89549945  0.76072943    -0.59300
O2341       O  0.87912800  0.91954896  0.77309968    -0.50300
C2342       C  0.83836315  0.82195808  0.72929236     0.71800
O2343       O  0.84801332  0.85679781  0.72482504    -0.45100
C2344       C  0.93764873  0.82389706  0.77529747     0.76500
O2345       O  0.92213600  0.92655128  0.74320809    -0.57000
O2346       O  0.90127294  0.83666611  0.77997597    -0.47100
O2347       O  0.92756746  0.87846525  0.72369356    -0.53400
C2348       C  0.83885036  0.92023972  0.77261854     0.86600
O2349       O  0.85182560  0.81167046  0.74608270    -0.55300
O2350       O  0.94955205  0.83455395  0.75825553    -0.58600
N2351       N  0.54513325  0.79488681  0.15298544    -0.35100
N2352       N  0.98429699  0.82164451  0.18042528    -0.55700
N2353       N  0.01390947  0.76059112  0.20902530    -0.35100
N2354       N  0.57862324  0.73778811  0.18060915    -0.55700
C2355       C  0.53139833  0.82815241  0.14441027     0.28500
C2356       C  0.58331261  0.78635177  0.14487969     0.28500
C2357       C  0.99206063  0.78562111  0.22095715     0.28500
C2358       C  0.53961856  0.73857189  0.22044004     0.28500
C2359       C  0.96586244  0.83310570  0.16325341     0.37100
C2360       C  0.95280551  0.81915409  0.19402603     0.37100
C2361       C  0.59551503  0.72522478  0.16324527     0.37100
C2362       C  0.57879394  0.70673515  0.19298038     0.37100
C2363       C  0.56210135  0.84201420  0.13124662    -0.20400
C2364       C  0.59484487  0.81524836  0.13137708    -0.20400
C2365       C  0.00440342  0.77933938  0.24046454    -0.20400
C2366       C  0.03437767  0.74958199  0.24020890    -0.20400
C2367       C  0.92232625  0.83710460  0.16580036    -0.21400
C2368       C  0.91404798  0.82907260  0.18547403    -0.21400
C2369       C  0.60651503  0.68610451  0.16449804    -0.21400
C2370       C  0.59546328  0.67428296  0.18333162    -0.21400
C2371       C  0.98927553  0.84092085  0.14575561    -0.16800
C2372       C  0.60298875  0.74964862  0.14678441    -0.16800
C2373       C  0.56742075  0.70865463  0.21329632    -0.16800
C2374       C  0.95974071  0.81192024  0.21439598    -0.16800
H2375       H  0.55980972  0.86724631  0.12161501     0.16100
H2376       H  0.62270226  0.81586358  0.12181693     0.16100
H2377       H  0.99319444  0.79440935  0.25360325     0.16100
H2378       H  0.05050576  0.73781375  0.25302583     0.16100
H2379       H  0.89913386  0.84419660  0.15457161     0.14400
H2380       H  0.88299918  0.82968967  0.19260358     0.14400
H2381       H  0.62069070  0.66803320  0.15303912     0.14400
H2382       H  0.59847658  0.64502012  0.18919102     0.14400
H2383       H  0.52608153  0.77524731  0.16094617     0.27700
H2384       H  0.50805338  0.75639378  0.19382585     0.27700
C2385       C  0.72825250  0.70032464  0.07029347     0.14200
C2386       C  0.68898231  0.71906546  0.07355485     0.01100
C2387       C  0.66920188  0.73886777  0.05782717     0.16100
C2388       C  0.68897315  0.74088688  0.03928617     0.25500
C2389       C  0.72928498  0.72415124  0.03639374    -0.40800
C2390       C  0.74829144  0.70284113  0.05176123     0.32600
C2391       C  0.66959725  0.72050501  0.09353602     0.01200
F2392       F  0.63214829  0.75856863  0.06081736    -0.13100
F2393       F  0.78707016  0.68602742  0.04901144    -0.13600
C2394       C  0.69158655  0.73868284  0.10927529     0.16100
C2395       C  0.67072123  0.74586231  0.12727730     0.25500
C2396       C  0.62771478  0.73508716  0.12964878    -0.40700
C2397       C  0.60629308  0.71538684  0.11428129     0.32500
C2398       C  0.62719508  0.70790650  0.09636658     0.14200
F2399       F  0.73213244  0.75207819  0.10669682    -0.13100
F2400       F  0.56437099  0.70556330  0.11625223    -0.13600
F2401       F  0.69134623  0.76586170  0.14186368    -0.15900
F2402       F  0.60547366  0.69007539  0.08141031    -0.14500
F2403       F  0.74772756  0.68074529  0.08521365    -0.14500
F2404       F  0.67036223  0.76177624  0.02458009    -0.15900
C2405       C  0.76946485  0.83687867  0.06271406     0.14200
C2406       C  0.80555345  0.82988400  0.07455776     0.01100
C2407       C  0.83516133  0.80144082  0.06849048     0.16100
C2408       C  0.82870663  0.78026520  0.05084794     0.25500
C2409       C  0.79263389  0.78735032  0.03905925    -0.40800
C2410       C  0.76326420  0.81601993  0.04505813     0.32600
C2411       C  0.81139313  0.85238133  0.09324241     0.01200
F2412       F  0.87062894  0.79477700  0.07946458    -0.13100
F2413       F  0.72878267  0.82411525  0.03365924    -0.13600
C2414       C  0.80800112  0.83370787  0.11177456     0.16100
C2415       C  0.80280426  0.85596808  0.12915027     0.25500
C2416       C  0.80099443  0.89708712  0.12810976    -0.40700
C2417       C  0.81010447  0.91559614  0.10993461     0.32500
C2418       C  0.81498461  0.89341346  0.09261227     0.14200
F2419       F  0.80624909  0.79402628  0.11285879    -0.13100
F2420       F  0.81047355  0.95531974  0.10872667    -0.13600
F2421       F  0.79581376  0.83736677  0.14665441    -0.15900
F2422       F  0.82048239  0.91204306  0.07500109    -0.14500
F2423       F  0.73998628  0.86379174  0.06836470    -0.14500
F2424       F  0.85754471  0.75279227  0.04525806    -0.15900
C2425       C  0.85360074  0.79580171  0.89478189     0.14200
C2426       C  0.87515996  0.81062557  0.91153232     0.01100
C2427       C  0.91658881  0.82633451  0.90917356     0.16100
C2428       C  0.93821599  0.82204724  0.89109821     0.25500
C2429       C  0.91809760  0.80319656  0.87509533    -0.40800
C2430       C  0.87474976  0.79285846  0.87658134     0.32600
C2431       C  0.85733491  0.80325814  0.93160967     0.01200
F2432       F  0.93739174  0.84255787  0.92485229    -0.13100
F2433       F  0.85495911  0.77445467  0.86123371    -0.13600
C2434       C  0.88136987  0.78194993  0.94553577     0.16100
C2435       C  0.86258228  0.76921123  0.96321689     0.25500
C2436       C  0.81944306  0.77687535  0.96704974    -0.40700
C2437       C  0.79593916  0.79964899  0.95375498     0.32500
C2438       C  0.81469977  0.81276940  0.93614433     0.14200
F2439       F  0.92218051  0.77115737  0.94148673    -0.13100
F2440       F  0.75455203  0.80854678  0.95772904    -0.13600
F2441       F  0.88583727  0.74773445  0.97616976    -0.15900
F2442       F  0.79079421  0.83371550  0.92325109    -0.14500
F2443       F  0.81404618  0.77954158  0.89653926    -0.14500
F2444       F  0.98008425  0.83244425  0.88982833    -0.15900
C2445       C  0.76435415  0.66301475  0.89081058     0.14200
C2446       C  0.73367038  0.65922127  0.90606174     0.01100
C2447       C  0.69829897  0.63417164  0.90292557     0.16100
C2448       C  0.69616564  0.61045993  0.88586072     0.25500
C2449       C  0.72935344  0.61132715  0.87170560    -0.40800
C2450       C  0.76244120  0.63902909  0.87390715     0.32600
C2451       C  0.74154879  0.67757728  0.92591767     0.01200
F2452       F  0.66760026  0.63024361  0.91707876    -0.13100
F2453       F  0.79476080  0.64059924  0.86043101    -0.13600
C2454       C  0.71084979  0.70141280  0.93530498     0.16100
C2455       C  0.71892692  0.71776716  0.95410895     0.25500
C2456       C  0.75796366  0.71104786  0.96374414    -0.40700
C2457       C  0.78834893  0.68688762  0.95452981     0.32500
C2458       C  0.78014741  0.67013590  0.93591638     0.14200
F2459       F  0.67344106  0.70954508  0.92611902    -0.13100
F2460       F  0.82582557  0.67902588  0.96373147    -0.13600
F2461       F  0.68903457  0.74093787  0.96276196    -0.15900
F2462       F  0.80965326  0.64576382  0.92782867    -0.14500
F2463       F  0.79753387  0.68856823  0.89279943    -0.14500
F2464       F  0.66346537  0.58439809  0.88390461    -0.15900
C2465       C  0.55543841  0.62263539  0.90850737     0.14200
C2466       C  0.53169575  0.58754101  0.90869180     0.01100
C2467       C  0.01320303  0.57379377  0.89087357     0.16100
C2468       C  0.01552181  0.59659541  0.87360636     0.25500
C2469       C  0.53611179  0.63347448  0.87396361    -0.40800
C2470       C  0.55761296  0.64544858  0.89126935     0.32600
C2471       C  0.52063561  0.56863821  0.92786495     0.01200
F2472       F  0.99031824  0.53984510  0.89066813    -0.13100
F2473       F  0.57732845  0.68099862  0.89195124    -0.13600
C2474       C  0.47951395  0.57375840  0.93584016     0.16100
C2475       C  0.46855414  0.55758028  0.95421820     0.25500
C2476       C  0.49842375  0.53570275  0.96501658    -0.40700
C2477       C  0.03995533  0.52968453  0.95681349     0.32500
C2478       C  0.05091780  0.54626064  0.93837580     0.14200
F2479       F  0.45020134  0.59537261  0.92597792    -0.13100
F2480       F  0.06914217  0.50779240  0.96658325    -0.13600
F2481       F  0.42885258  0.56396019  0.96169267    -0.15900
F2482       F  0.09068224  0.54069784  0.93079732    -0.14500
F2483       F  0.57314407  0.63655786  0.92550234    -0.14500
F2484       F  0.99463745  0.58439445  0.85706414    -0.15900
C2485       C  0.87053936  0.46674790  0.94602992     0.14200
C2486       C  0.89502999  0.44410486  0.93271880     0.01100
C2487       C  0.94724556  0.94548875  0.93342109     0.16100
C2488       C  0.96740328  0.95702737  0.95094059     0.25500
C2489       C  0.93153944  0.47364262  0.96777348    -0.40800
C2490       C  0.88850272  0.48078259  0.96358011     0.32600
C2491       C  0.88510782  0.94874701  0.91053432     0.01200
F2492       F  0.96935756  0.92471329  0.91962364    -0.13100
F2493       F  0.86446870  0.50289638  0.97609000    -0.13600
C2494       C  0.89840319  0.44627782  0.89576306     0.16100
C2495       C  0.87714406  0.44577455  0.87765159     0.25500
C2496       C  0.83836366  0.94798387  0.87517809    -0.40700
C2497       C  0.82632306  0.92314295  0.89085389     0.32500
C2498       C  0.84920717  0.92415315  0.90864510     0.14200
F2499       F  0.93743535  0.46379309  0.89671823    -0.08300
F2500       F  0.79030081  0.90090972  0.88954399    -0.13600
F2501       F  0.89653495  0.46181519  0.86151013    -0.15900
F2502       F  0.83498840  0.90318734  0.92443929    -0.14500
F2503       F  0.82992519  0.47720743  0.94154994    -0.14500
F2504       F  0.00847589  0.94622881  0.95413182    -0.15900
C2505       C  0.54764517  0.56515914  0.06385898     0.14200
C2506       C  0.56753301  0.53341111  0.07312218     0.01100
C2507       C  0.57475965  0.99010320  0.06526425     0.16100
C2508       C  0.55679765  0.98350075  0.04664088     0.25500
C2509       C  0.52187624  0.52159637  0.03776874    -0.40800
C2510       C  0.52509427  0.55935987  0.04615303     0.32600
C2511       C  0.58913248  0.53816425  0.09234330     0.01200
F2512       F  0.58798886  0.95903521  0.07613764    -0.13100
F2513       F  0.50414686  0.58992778  0.03789223    -0.13600
C2514       C  0.56685451  0.52970524  0.10996609     0.16100
C2515       C  0.58905517  0.52525154  0.12776672     0.25500
C2516       C  0.63368145  0.52935296  0.12803986    -0.40700
C2517       C  0.66006009  0.04979527  0.11211455     0.32500
C2518       C  0.63792832  0.05208487  0.09422472     0.14200
F2519       F  0.52410731  0.52288536  0.10959635    -0.13100
F2520       F  0.70132327  0.06222175  0.11289471    -0.13600
F2521       F  0.56765433  0.51339930  0.14427850    -0.15900
F2522       F  0.65773461  0.06762673  0.07807504    -0.14500
F2523       F  0.54909698  0.60134582  0.07227937    -0.14500
F2524       F  0.55302615  0.94618944  0.03975533    -0.15900
C2525       C  0.93632432  0.90810305  0.05595900     0.14200
C2526       C  0.94454069  0.92640990  0.07436831     0.01100
C2527       C  0.45400021  0.96706419  0.07407273     0.16100
C2528       C  0.45886216  0.98716787  0.05607196     0.25500
C2529       C  0.95956802  0.96665873  0.03803122    -0.40800
C2530       C  0.94632121  0.92705118  0.03813633     0.32600
C2531       C  0.94856088  0.90220722  0.09293684     0.01200
F2532       F  0.46117834  0.98725847  0.09108706    -0.13100
F2533       F  0.94513091  0.90569355  0.02111622    -0.13600
C2534       C  0.96863212  0.86525126  0.09198771     0.16100
C2535       C  0.97633523  0.84371328  0.10911696     0.25500
C2536       C  0.96975579  0.86028444  0.12800097    -0.40700
C2537       C  0.94878537  0.89662256  0.12922570     0.32500
C2538       C  0.93634708  0.91637095  0.11188358     0.14200
F2539       F  0.98416475  0.85075956  0.07464282    -0.13100
F2540       F  0.94233043  0.91407327  0.14709557    -0.13600
F2541       F  0.99352523  0.80742219  0.10720833    -0.15900
F2542       F  0.91308718  0.94960507  0.11377256    -0.14500
F2543       F  0.92030821  0.87103677  0.05513435    -0.14500
F2544       F  0.46459411  0.02660932  0.05653142    -0.15900
C2545       C  0.88082640  0.79990115  0.55285451     0.14200
C2546       C  0.90603897  0.80596504  0.56986069     0.01100
C2547       C  0.95080596  0.80672705  0.56789948     0.16100
C2548       C  0.97000563  0.79784175  0.54967816     0.25500
C2549       C  0.94469193  0.78822331  0.53317579    -0.40800
C2550       C  0.90009000  0.79184698  0.53455136     0.32600
C2551       C  0.88582415  0.80735095  0.58979775     0.01200
F2552       F  0.97589357  0.81437302  0.58385533    -0.13100
F2553       F  0.87504702  0.78347524  0.51866462    -0.13600
C2554       C  0.89689595  0.77941671  0.60417119     0.16100
C2555       C  0.87431131  0.77723940  0.62203765     0.25500
C2556       C  0.84127053  0.80376698  0.62616396    -0.40700
C2557       C  0.83164716  0.83296535  0.61233105     0.32500
C2558       C  0.85297394  0.83403935  0.59406589     0.14200
F2559       F  0.92749083  0.75237273  0.60035065    -0.13100
F2560       F  0.79943230  0.85847217  0.61594459    -0.13600
F2561       F  0.88279175  0.74759576  0.63481608    -0.15900
F2562       F  0.83992636  0.85969957  0.58013261    -0.14500
F2563       F  0.83755251  0.79845791  0.55425382    -0.14500
F2564       F  0.01327481  0.79650403  0.54835892    -0.15900
C2565       C  0.58872067  0.73142358  0.44208242     0.14200
C2566       C  0.57393013  0.70128605  0.42951675     0.01100
C2567       C  0.53603834  0.68112310  0.43458516     0.16100
C2568       C  0.51322174  0.69127325  0.45185762     0.25500
C2569       C  0.52755999  0.72221296  0.46401017    -0.40800
C2570       C  0.56573171  0.74179571  0.45910967     0.32600
C2571       C  0.59687402  0.69366587  0.41052339     0.01200
F2572       F  0.52090568  0.65207611  0.42267931    -0.13100
F2573       F  0.58023313  0.77169462  0.47065792    -0.13600
C2574       C  0.64023056  0.68304766  0.41066199     0.16100
C2575       C  0.66496998  0.68583059  0.39333092     0.25500
C2576       C  0.64673819  0.69917632  0.37556252    -0.40700
C2577       C  0.60262055  0.70659491  0.37504631     0.32500
C2578       C  0.57780615  0.70364277  0.39237675     0.14200
F2579       F  0.65930258  0.67287337  0.42794067    -0.13100
F2580       F  0.58462130  0.72097037  0.35830946    -0.13600
F2581       F  0.70763692  0.67921612  0.39431128    -0.15900
F2582       F  0.53615308  0.71444919  0.39185061    -0.14500
F2583       F  0.62456035  0.75209227  0.43735173    -0.14500
F2584       F  0.47650222  0.67182149  0.45639291    -0.15900
C2585       C  0.45640493  0.84320018  0.38956704     0.14200
C2586       C  0.94752319  0.85917055  0.40834373     0.01100
C2587       C  0.93478665  0.89858390  0.40955597     0.16100
C2588       C  0.93667894  0.92250915  0.39276046     0.25500
C2589       C  0.95087571  0.90720513  0.37453107    -0.40800
C2590       C  0.45809206  0.86717038  0.37276595     0.32600
C2591       C  0.95567749  0.83646494  0.42666570     0.01200
F2592       F  0.92306897  0.91443055  0.42725136    -0.13100
F2593       F  0.47058306  0.85159316  0.35512981    -0.13600
C2594       C  0.48512920  0.85042902  0.44063192     0.16100
C2595       C  0.49371643  0.82875945  0.45771345     0.25500
C2596       C  0.47313535  0.79267277  0.46094128    -0.40700
C2597       C  0.94504040  0.77815353  0.44685212     0.32500
C2598       C  0.93595786  0.79984838  0.42980006     0.14200
F2599       F  0.50635672  0.88478668  0.43765812    -0.13100
F2600       F  0.92480208  0.74334345  0.44983900    -0.13600
F2601       F  0.52212486  0.84295663  0.47115866    -0.15900
F2602       F  0.90710761  0.78559926  0.41659188    -0.14500
F2603       F  0.46752965  0.80494925  0.38779486    -0.14500
F2604       F  0.92823978  0.96134215  0.39459845    -0.15900
C2605       C  0.70932021  0.57565350  0.43257439     0.14200
C2606       C  0.67349176  0.55419552  0.42604506     0.01100
C2607       C  0.66895235  0.01628054  0.43518273     0.16100
C2608       C  0.68854182  0.00679174  0.45308950     0.25500
C2609       C  0.71617872  0.53236198  0.46122947    -0.40800
C2610       C  0.73019327  0.56513709  0.45023396     0.32600
C2611       C  0.65035172  0.56414758  0.40756115     0.01200
F2612       F  0.63624682  0.99353304  0.42846397    -0.13100
F2613       F  0.76464536  0.58625942  0.45632880    -0.13600
C2614       C  0.67623116  0.03923614  0.38754015     0.16100
C2615       C  0.64951713  0.03681142  0.37094721     0.25500
C2616       C  0.59699540  0.55907572  0.37405846    -0.40700
C2617       C  0.58105448  0.57379367  0.39210489     0.32500
C2618       C  0.60753797  0.57620190  0.40875494     0.14200
F2619       F  0.71453337  0.02078994  0.38714432    -0.13100
F2620       F  0.53880780  0.58175509  0.39410312    -0.13600
F2621       F  0.66246124  0.01604356  0.35481009    -0.15900
F2622       F  0.59043088  0.58669154  0.42652071    -0.14500
F2623       F  0.72393067  0.60667731  0.42189888    -0.14500
F2624       F  0.67414140  0.97513773  0.46336819    -0.15900
C2625       C  0.81567415  0.85501393  0.40790926     0.14200
C2626       C  0.79977129  0.89343755  0.40770972     0.01100
C2627       C  0.78568345  0.90963441  0.38973120     0.16100
C2628       C  0.78393788  0.88649619  0.37261585     0.25500
C2629       C  0.79566656  0.84692449  0.37343929    -0.40800
C2630       C  0.81335615  0.83179164  0.39087258     0.32600
C2631       C  0.79261383  0.91465440  0.42654929     0.01200
F2632       F  0.76968354  0.94651423  0.38920527    -0.13100
F2633       F  0.82452799  0.79345935  0.39183560    -0.13600
C2634       C  0.80996365  0.95222330  0.42951409     0.16100
C2635       C  0.80046825  0.97313744  0.44681011     0.25500
C2636       C  0.77342743  0.95678369  0.46139300    -0.40700
C2637       C  0.75695142  0.91880026  0.45863617     0.32500
C2638       C  0.76611032  0.89804482  0.44125962     0.14200
F2639       F  0.83625724  0.96850600  0.41569175    -0.13100
F2640       F  0.73102836  0.90226938  0.47252778    -0.13600
F2641       F  0.81820417  0.00918546  0.44947615    -0.15900
F2642       F  0.74786981  0.86221804  0.43847681    -0.14500
F2643       F  0.83052468  0.83915894  0.42497646    -0.14500
F2644       F  0.76655106  0.90139272  0.35584524    -0.15900
C2645       C  0.71323789  0.60333667  0.60211951     0.14200
C2646       C  0.74732716  0.61202090  0.58897866     0.01100
C2647       C  0.77797456  0.64003095  0.59478013     0.16100
C2648       C  0.77469464  0.65882447  0.61307098     0.25500
C2649       C  0.73865072  0.65293216  0.62538362    -0.40800
C2650       C  0.70812127  0.62462282  0.61983119     0.32600
C2651       C  0.75043567  0.59317434  0.56903433     0.01200
F2652       F  0.81015584  0.65091905  0.58234195    -0.13100
F2653       F  0.67263401  0.61860378  0.63109203    -0.13600
C2654       C  0.71426434  0.59029621  0.55671818     0.16100
C2655       C  0.71665251  0.57072100  0.53850601     0.25500
C2656       C  0.75573372  0.55520088  0.53180243    -0.40700
C2657       C  0.79282525  0.56215747  0.54296217     0.32500
C2658       C  0.78985831  0.57896565  0.56184853     0.14200
F2659       F  0.67632915  0.60595172  0.56238040    -0.13100
F2660       F  0.83134488  0.54937325  0.53633730    -0.13600
F2661       F  0.68020131  0.56489210  0.52799881    -0.15900
F2662       F  0.82510773  0.57907659  0.57352324    -0.14500
F2663       F  0.68459747  0.57454294  0.59774465    -0.14500
F2664       F  0.80601836  0.68455698  0.61832843    -0.15900
C2665       C  0.95141977  0.68815243  0.56613544     0.14200
C2666       C  0.49020356  0.67655014  0.57427658     0.01100
C2667       C  0.52767283  0.68221353  0.56283219     0.16100
C2668       C  0.52581843  0.69988133  0.54407279     0.25500
C2669       C  0.48636398  0.71046919  0.53583091    -0.40800
C2670       C  0.94932014  0.70278648  0.54683153     0.32600
C2671       C  0.49149974  0.65597895  0.59392078     0.01200
F2672       F  0.56614335  0.66984347  0.56949542    -0.13100
F2673       F  0.91034071  0.70916128  0.53876712    -0.13600
C2674       C  0.96183799  0.62638861  0.59821052     0.16100
C2675       C  0.96342528  0.60574030  0.61598174     0.25500
C2676       C  0.49774200  0.61058627  0.62908092    -0.40700
C2677       C  0.52787433  0.64033789  0.62504392     0.32500
C2678       C  0.52370948  0.66392012  0.60807661     0.14200
F2679       F  0.93218295  0.61522583  0.58463070    -0.13100
F2680       F  0.56256190  0.64525975  0.63683475    -0.13600
F2681       F  0.93252018  0.57850745  0.61967123    -0.15900
F2682       F  0.55180697  0.69391744  0.60533792    -0.14500
F2683       F  0.91463440  0.68556852  0.57682927    -0.14500
F2684       F  0.56274113  0.70703115  0.53403831    -0.15900
C2685       C  0.90768112  0.43178513  0.58741004     0.14200
C2686       C  0.86037339  0.94018022  0.58876107     0.01100
C2687       C  0.84193820  0.94447082  0.60788375     0.16100
C2688       C  0.86789405  0.94982462  0.62453702     0.25500
C2689       C  0.91196707  0.94218081  0.62345384    -0.40800
C2690       C  0.93109959  0.42565392  0.60483906     0.32600
C2691       C  0.83428158  0.94671029  0.57009422     0.01200
F2692       F  0.79902909  0.94363061  0.61076646    -0.13100
F2693       F  0.97101218  0.41038672  0.60356955    -0.13600
C2694       C  0.84631040  0.93051243  0.55152265     0.16100
C2695       C  0.82849855  0.94435441  0.53389453     0.25500
C2696       C  0.79213497  0.96868945  0.53422557    -0.40700
C2697       C  0.77501120  0.47907700  0.55336677     0.32500
C2698       C  0.79998540  0.47315196  0.57030852     0.14200
F2699       F  0.87507034  0.90112057  0.54995984    -0.13100
F2700       F  0.73547586  0.49446737  0.55574358    -0.13600
F2701       F  0.84818591  0.93450336  0.51662444    -0.15900
F2702       F  0.78868280  0.49341762  0.58682312    -0.14500
F2703       F  0.92997747  0.43101224  0.57015684    -0.14500
F2704       F  0.84987611  0.96371371  0.64149441    -0.15900
loop_ 
_geom_bond_atom_site_label_1 
_geom_bond_atom_site_label_2 
_geom_bond_distance 
_geom_bond_site_symmetry_2 
_ccdc_geom_bond_type 
In1           O3   2.285       .  S
In1           O4   2.239       .  S
In1          O12   2.281       .  S
In1           O6   2.243       .  S
In1           O8   2.243       .  S
In1           O9   2.238       .  S
In1          O10   2.284       .  S
In1          O13   2.292       .  S
C2            O8   1.261       .  A
C2           O10   1.259       .  A
C2          C155   1.492       .  S
O3           C11   1.259       .  A
O4           C11   1.261       .  A
C5           O12   1.259       .  A
C5            O6   1.261       .  A
C5           C78   1.492       .  S
C7            O9   1.260       .  A
C7           O13   1.258       .  A
C7          C346   1.496       .  S
C11         C277   1.493       .  S
N14         C695   1.362   1_655  A
N14        C1370   1.356       .  A
N14        H2074   1.037       .  S
N15          C22   1.355       .  A
N15          C23   1.360       .  A
N16          C21   1.352       .  A
N16          C20   1.352   1_545  A
N16          H47   1.041       .  S
N17          C24   1.349       .  A
N17          C25   1.354       .  A
C18        N1366   1.356       .  A
C18          C34   1.425       .  A
C18        C1378   1.386       .  A
C19         N690   1.361   1_455  A
C19          C35   1.433       .  A
C19         C703   1.391       .  A
C20          C28   1.394       .  A
C20         C713   1.421       .  A
C21          C29   1.380       .  A
C21        C1388   1.408       .  A
C22          C34   1.426       .  A
C22          C30   1.388       .  A
C23          C37   1.423       .  A
C23          C31   1.383       .  A
C24          C32   1.393       .  A
C24          C35   1.422       .  A
C25          C33   1.380       .  A
C25          C36   1.411       .  A
C26          C27   1.384       .  A
C26        C1370   1.386   1_455  A
C26          H38   1.082       .  S
C27         C695   1.389       .  A
C27          H39   1.081       .  S
C28          C29   1.367   1_565  A
C28          H40   1.074       .  S
C29          H41   1.083       .  S
C30          C31   1.373       .  A
C30          H42   1.079       .  S
C31          H43   1.082       .  S
C32          C33   1.379       .  A
C32          H44   1.079       .  S
C33          H45   1.082       .  S
C34         C311   1.496       .  S
C35         C301   1.500       .  S
C36         C648   1.504       .  S
C36        C1373   1.408       .  A
C37         C661   1.507       .  S
C37         C696   1.420       .  A
H46        N2042   1.038       .  S
C48         C628   1.496       .  S
C48          C49   1.437   1_545  A
C48          C53   1.413       .  A
C49        C1344   1.511       .  S
C49         C726   1.407       .  A
C50          C51   1.404       .  A
C50         C725   1.410       .  A
C50          H55   1.082       .  S
C51         C608   1.478       .  S
C51          C52   1.408       .  A
C52        C1257   1.495       .  S
C52         C729   1.398       .  A
C53         C728   1.403       .  A
C53          H54   1.084       .  S
N56          C61   1.350   1_455  A
N56          C60   1.350       .  A
N56          H88   1.042   1_455  S
N57          C64   1.353       .  A
N57          C65   1.349       .  A
N58         C739   1.359   1_545  A
N58        C1414   1.358       .  A
N58        H2117   1.040       .  S
N59          C66   1.352       .  A
N59          C67   1.349       .  A
C60          C68   1.388       .  A
C60         C752   1.411       .  A
C61          C69   1.388   1_655  A
C61        C1429   1.410       .  A
C62        N1410   1.358       .  A
C62          C79   1.426       .  A
C62        C1422   1.387       .  A
C63         N734   1.357       .  A
C63          C78   1.425       .  A
C63         C747   1.388       .  A
C64          C76   1.405       .  A
C64          C72   1.379       .  A
C65          C79   1.415       .  A
C65          C73   1.390       .  A
C66          C74   1.380       .  A
C66          C77   1.404       .  A
C67          C75   1.390       .  A
C67          C78   1.415       .  A
C68          C69   1.374       .  A
C68          H80   1.082       .  S
C69          H81   1.082       .  S
C70          C71   1.386   1_545  A
C70        C1414   1.387       .  A
C70          H82   1.082       .  S
C71         C739   1.388       .  A
C71          H83   1.081       .  S
C72          C73   1.375       .  A
C72          H84   1.079       .  S
C73          H85   1.082       .  S
C74          C75   1.373       .  A
C74          H86   1.081       .  S
C75          H87   1.082       .  S
C76         C588   1.485       .  S
C76         C736   1.409       .  A
C77         C561   1.483       .  S
C77        C1413   1.409       .  A
C79         C248   1.493       .  S
H89        N2086   1.041       .  S
C90         C641   1.500       .  S
C90          C95   1.412   1_655  A
C90        C1443   1.423       .  A
C91         C521   1.485       .  S
C91          C92   1.398       .  A
C91        C1442   1.423       .  A
C92        C1445   1.400       .  A
C92          H97   1.085       .  S
C93         C568   1.481       .  S
C93          C94   1.414   1_655  A
C93        C1444   1.400       .  A
C94         C541   1.488       .  S
C94          C95   1.409       .  A
C95          H96   1.084       .  S
N98         C103   1.344       .  A
N98         C102   1.348       .  A
N98         H130   1.042       .  S
N99         C106   1.353       .  A
N99         C107   1.345       .  A
N100        C105   1.359       .  A
N100        C104   1.358       .  A
N100        H131   1.041       .  S
N101        C108   1.356       .  A
N101        C109   1.347       .  A
C102        C110   1.389       .  A
C102        C118   1.407       .  A
C103        C119   1.403       .  A
C103        C111   1.385       .  A
C104        C112   1.385       .  A
C104        C121   1.424       .  A
C105        C120   1.433       .  A
C105        C113   1.391       .  A
C106        C118   1.408       .  A
C106        C114   1.382       .  A
C107        C121   1.410       .  A
C107        C115   1.388       .  A
C108        C116   1.383       .  A
C108        C119   1.415       .  A
C109        C117   1.390       .  A
C109        C120   1.419       .  A
C110        C111   1.375       .  A
C110        H122   1.080       .  S
C111        H123   1.083       .  S
C112        C113   1.387       .  A
C112        H124   1.082       .  S
C113        H125   1.081       .  S
C114        C115   1.374       .  A
C114        H126   1.082       .  S
C115        H127   1.082       .  S
C116        C117   1.382       .  A
C116        H128   1.082       .  S
C117        H129   1.082       .  S
C118        C528   1.484       .  S
C119        C621   1.497       .  S
C120        C298   1.500       .  S
C121        C314   1.487       .  S
N132        C137   1.349       .  A
N132        C136   1.347       .  A
N132        H164   1.042       .  S
N133        C140   1.350       .  A
N133        C141   1.347       .  A
N134        C139   1.357       .  A
N134        C138   1.360       .  A
N134        H165   1.041       .  S
N135        C142   1.356       .  A
N135        C143   1.350       .  A
C136        C144   1.387       .  A
C136        C152   1.405       .  A
C137        C153   1.407       .  A
C137        C145   1.388       .  A
C138        C146   1.386       .  A
C138        C155   1.425       .  A
C139        C154   1.426       .  A
C139        C147   1.389       .  A
C140        C152   1.400       .  A
C140        C148   1.380       .  A
C141        C155   1.411       .  A
C141        C149   1.390       .  A
C142        C150   1.378       .  A
C142        C153   1.410       .  A
C143        C151   1.390       .  A
C143        C154   1.419       .  A
C144        C145   1.372       .  A
C144        H156   1.082       .  S
C145        H157   1.082       .  S
C146        C147   1.385       .  A
C146        H158   1.082       .  S
C147        H159   1.082       .  S
C148        C149   1.372       .  A
C148        H160   1.081       .  S
C149        H161   1.082       .  S
C150        C151   1.377       .  A
C150        H162   1.080       .  S
C151        H163   1.082       .  S
C152        C601   1.474       .  S
C153        C548   1.491       .  S
C154        C252   1.492       .  S
C166        C501   1.499       .  S
C166        C171   1.402       .  A
C166       C2195   1.424       .  A
C167        C481   1.480       .  S
C167        C168   1.408   1_554  A
C167       C2194   1.427   1_445  A
C168       C1521   1.401       .  A
C168        H173   1.084       .  S
C169       C1800   1.490       .  S
C169        C170   1.412   1_545  A
C169       C1520   1.400       .  A
C170        C461   1.476       .  S
C170        C847   1.400   1_556  A
C171        C846   1.398   1_554  A
C171        H172   1.084       .  S
N174        C178   1.362       .  A
N174        C855   1.362   1_545  A
N174        H206   1.037       .  S
N175        C182   1.346       .  A
N175        C183   1.354       .  A
N176        C181   1.348   1_545  A
N176        C180   1.352       .  A
N176        H207   1.037       .  S
N177        C184   1.354       .  A
N177        C185   1.353       .  A
C178        C194   1.434       .  A
C178        C862   1.387       .  A
C179        N850   1.361       .  A
C179        C195   1.429       .  A
C179        C187   1.386       .  A
C180        C188   1.386       .  A
C180        C197   1.410       .  A
C181        C189   1.388       .  A
C181        C872   1.410       .  A
C182        C194   1.415       .  A
C182        C190   1.390       .  A
C183        C197   1.409       .  A
C183        C191   1.382       .  A
C184        C192   1.389       .  A
C184        C195   1.421       .  A
C185        C193   1.383       .  A
C185        C196   1.413       .  A
C186        C187   1.382       .  A
C186        C854   1.389       .  A
C186        H874   1.081       .  S
C187        H199   1.081       .  S
C188        C189   1.370   1_545  A
C188        H200   1.080       .  S
C189        H201   1.080       .  S
C190        C191   1.373       .  A
C190        H202   1.083       .  S
C191        H203   1.082       .  S
C192        C193   1.368       .  A
C192        H204   1.081       .  S
C193        H205   1.082       .  S
C194        C303   1.497       .  S
C195        C320   1.500       .  S
C196        C468   1.484       .  S
C196        C857   1.422       .  A
C197        C421   1.488       .  S
H198        C862   1.082       .  S
N208        C213   1.353       .  A
N208        C212   1.351       .  A
N208        H240   1.039       .  S
N209        C216   1.357       .  A
N209        C217   1.353       .  A
N210        C214   1.360       .  A
N210       C1567   1.361   1_455  A
N210       H1593   1.038       .  S
N211        C218   1.352       .  A
N211        C219   1.348       .  A
C212        C220   1.388       .  A
C212       C1580   1.413       .  A
C213        C229   1.412       .  A
C213        C221   1.387       .  A
C214        C222   1.388       .  A
C214        C231   1.429       .  A
C215       N1562   1.361       .  A
C215        C230   1.429       .  A
C215       C1575   1.387       .  A
C216        C228   1.414       .  A
C216        C224   1.383       .  A
C217        C231   1.422       .  A
C217        C225   1.389       .  A
C218        C226   1.381       .  A
C218        C229   1.404       .  A
C219        C227   1.390       .  A
C219        C230   1.414       .  A
C220        C221   1.371       .  A
C220        H232   1.082       .  S
C221        H233   1.082       .  S
C222        C223   1.385   1_455  A
C222        H234   1.082       .  S
C223       C1567   1.387       .  A
C223        H235   1.082       .  S
C224        C225   1.375       .  A
C224        H236   1.083       .  S
C225        H237   1.080       .  S
C226        C227   1.373       .  A
C226        H238   1.081       .  S
C227        H239   1.082       .  S
C228        C441   1.494       .  S
C228       C1564   1.413   1_455  A
C229        C401   1.485       .  S
C230        C316   1.495       .  S
C231        C307   1.503       .  S
H241       N1562   1.038       .  S
In242       O244   2.286       .  S
In242       O245   2.240       .  S
In242       O253   2.298       .  S
In242       O247   2.255       .  S
In242       O249   2.252       .  S
In242       O250   2.236       .  S
In242       O251   2.303       .  S
In242       O254   2.285       .  S
C243        O249   1.261       .  A
C243        O251   1.261       .  A
C243        C278   1.501       .  S
O244        C252   1.262       .  A
O245        C252   1.260       .  A
C246        O253   1.260       .  A
C246        O247   1.261       .  A
C246        C345   1.499       .  S
C248        O250   1.261       .  A
C248        O254   1.262       .  A
N255        C260   1.349       .  A
N255        C259   1.347       .  A
N255        H287   1.040       .  S
N256        C263   1.352       .  A
N256        C264   1.350       .  A
N257        C261   1.361   1_565  A
N257        C938   1.359       .  A
N257        H964   1.039       .  S
N258        C265   1.355       .  A
N258        C266   1.348       .  A
C259        C267   1.389       .  A
C259        C951   1.408       .  A
C260        C276   1.406       .  A
C260        C268   1.387       .  A
C261        C269   1.387       .  A
C261        C278   1.430       .  A
C262        N933   1.358       .  A
C262        C277   1.427       .  A
C262        C946   1.388       .  A
C263        C275   1.405       .  A
C263        C271   1.381       .  A
C264        C278   1.417       .  A
C264        C272   1.389       .  A
C265        C273   1.378       .  A
C265        C276   1.407       .  A
C266        C274   1.390       .  A
C266        C277   1.416       .  A
C267        C268   1.375       .  A
C267        H279   1.083       .  S
C268        H280   1.082       .  S
C269        C270   1.387   1_545  A
C269        H281   1.082       .  S
C270        C938   1.388       .  A
C270        H282   1.082       .  S
C271        C272   1.372       .  A
C271        H283   1.082       .  S
C272        H284   1.081       .  S
C273        C274   1.374       .  A
C273        H285   1.079       .  S
C274        H286   1.081       .  S
C275        C488   1.475       .  S
C275        C935   1.408   1_545  A
C276        C388   1.486       .  S
H288        N933   1.041       .  S
C289        C408   1.477       .  S
C289        C290   1.414       .  A
C289        C294   1.404       .  A
C290        C428   1.483       .  S
C290        C291   1.401       .  A
C291        C292   1.402   1_556  A
C291        H296   1.084       .  S
C292        C361   1.472       .  S
C292        C293   1.415       .  A
C293        C381   1.488       .  S
C293        C294   1.401   1_554  A
C294        H295   1.084       .  S
In297       O299   2.262       .  S
In297       O300   2.300       .  S
In297       O308   2.285       .  S
In297       O302   2.258       .  S
In297       O304   2.244       .  S
In297       O305   2.238       .  S
In297       O306   2.285       .  S
In297       O309   2.309       .  S
C298        O304   1.262       .  A
C298        O306   1.263       .  A
O299        C307   1.260       .  A
O300        C307   1.262       .  A
C301        O308   1.260       .  A
C301        O302   1.256       .  A
C303        O305   1.261       .  A
C303        O309   1.260       .  A
In310       O312   2.291       .  S
In310       O313   2.251       .  S
In310       O321   2.290       .  S
In310       O315   2.236       .  S
In310       O317   2.281       .  S
In310       O318   2.240       .  S
In310       O319   2.264       .  S
In310       O322   2.299       .  S
C311        O317   1.261       .  A
C311        O319   1.260       .  A
O312        C320   1.261       .  A
O313        C320   1.262       .  A
C314        O321   1.259       .  A
C314        O315   1.260       .  A
C316        O318   1.260       .  A
C316        O322   1.260       .  A
N323        C328   1.342       .  A
N323        C327   1.347       .  A
N323        H355   1.043       .  S
N324        C331   1.354       .  A
N324        C332   1.345       .  A
N325        C329   1.359       .  A
N325       C1682   1.360       .  A
N325       H1708   1.041       .  S
N326        C333   1.351       .  A
N326        C334   1.347       .  A
C327        C335   1.389       .  A
C327       C1695   1.410   1_455  A
C328        C344   1.402       .  A
C328        C336   1.387       .  A
C329        C337   1.388       .  A
C329        C346   1.429       .  A
C330       N1677   1.360       .  A
C330        C345   1.431       .  A
C330       C1690   1.387       .  A
C331        C343   1.411       .  A
C331        C339   1.381       .  A
C332        C346   1.409       .  A
C332        C340   1.387       .  A
C333        C341   1.382       .  A
C333        C344   1.405       .  A
C334        C342   1.389       .  A
C334        C345   1.413       .  A
C335        C336   1.380       .  A
C335        H347   1.083       .  S
C336        H348   1.083       .  S
C337        C338   1.389       .  A
C337        H349   1.081       .  S
C338       C1682   1.387       .  A
C338        H350   1.082       .  S
C339        C340   1.376       .  A
C339        H351   1.079       .  S
C340        H352   1.082       .  S
C341        C342   1.377       .  A
C341        H353   1.082       .  S
C342        H354   1.081       .  S
C343        C508   1.503       .  S
C343       C1679   1.410       .  A
C344        C368   1.475       .  S
H356       N1677   1.041       .  S
C357        C358   1.406       .  A
C357        C362   1.400       .  A
C357        F375   1.358       .  S
C358        C363   1.476       .  S
C358        C359   1.407       .  A
C359        C360   1.392       .  A
C359        F364   1.358       .  S
C360        C361   1.400       .  A
C360        F376   1.358       .  S
C361        C362   1.404       .  A
C362        F365   1.357       .  S
C363        C366   1.408       .  A
C363        C370   1.404       .  A
C366        C367   1.398       .  A
C366        F371   1.357       .  S
C367        C368   1.400       .  A
C367        F373   1.357       .  S
C368        C369   1.405       .  A
C369        C370   1.395       .  A
C369        F372   1.358       .  S
C370        F374   1.358       .  S
C377        C378   1.409       .  A
C377        C382   1.400       .  A
C377        F395   1.358       .  S
C378        C383   1.489       .  S
C378        C379   1.407       .  A
C379        C380   1.404       .  A
C379        F384   1.358       .  S
C380        C381   1.406       .  A
C380        F396   1.357       .  S
C381        C382   1.404       .  A
C382        F385   1.357       .  S
C383        C386   1.408       .  A
C383        C390   1.407       .  A
C386        C387   1.402       .  A
C386        F391   1.356       .  S
C387        C388   1.404       .  A
C387        F393   1.358       .  S
C388        C389   1.404       .  A
C389        C390   1.400       .  A
C389        F392   1.358       .  S
C390        F394   1.358       .  S
C397        C398   1.407       .  A
C397        C402   1.399       .  A
C397        F415   1.358       .  S
C398        C403   1.483       .  S
C398        C399   1.407       .  A
C399        C400   1.399       .  A
C399        F404   1.357       .  S
C400        C401   1.403       .  A
C400        F416   1.357       .  S
C401        C402   1.405       .  A
C402        F405   1.358       .  S
C403        C406   1.409       .  A
C403        C410   1.407       .  A
C406        C407   1.395       .  A
C406        F411   1.358       .  S
C407        C408   1.400       .  A
C407        F413   1.358       .  S
C408        C409   1.405       .  A
C409        C410   1.401       .  A
C409        F412   1.358       .  S
C410        F414   1.357       .  S
C417        C418   1.408       .  A
C417        C422   1.398       .  A
C417        F435   1.358       .  S
C418        C423   1.489       .  S
C418        C419   1.409       .  A
C419        C420   1.402       .  A
C419        F424   1.356       .  S
C420        C421   1.405       .  A
C420        F436   1.358       .  S
C421        C422   1.404       .  A
C422        F425   1.358       .  S
C423        C426   1.409       .  A
C423        C430   1.409       .  A
C426        C427   1.403       .  A
C426        F431   1.357       .  S
C427        C428   1.405       .  A
C427        F433   1.357       .  S
C428        C429   1.403       .  A
C429        C430   1.397       .  A
C429        F432   1.358       .  S
C430        F434   1.358       .  S
C437        C438   1.403       .  A
C437        C442   1.398       .  A
C437        F455   1.358       .  S
C438        C443   1.481       .  S
C438       C1791   1.405       .  A
C439        C440   1.404       .  A
C439       C1790   1.405       .  A
C439        F444   1.357       .  S
C440       C1793   1.407       .  A
C440        F456   1.357       .  S
C441        C442   1.409       .  A
C441       C1792   1.407       .  A
C442        F445   1.358       .  S
C443        C446   1.404   1_455  A
C443       C1802   1.405       .  A
C446        C447   1.397       .  A
C446        F451   1.358       .  S
C447        C448   1.406   1_655  A
C447        F453   1.358       .  S
C448       C1521   1.491       .  S
C448       C1801   1.409       .  A
C449        C450   1.406       .  A
C449       C1800   1.409       .  A
C449        F452   1.357       .  S
C450       C1795   1.405       .  A
C450        F454   1.357       .  S
C457        C458   1.405       .  A
C457        C462   1.396       .  A
C457        F475   1.358       .  S
C458       C1139   1.471       .  S
C458       C1135   1.402       .  A
C459        C460   1.397       .  A
C459       C1134   1.406       .  A
C459        F464   1.358       .  S
C460       C1137   1.405       .  A
C460        F476   1.358       .  S
C461        C462   1.403       .  A
C461       C1136   1.406       .  A
C462        F465   1.358   1_565  S
C463       C1134   1.480       .  S
C463        C470   1.408       .  A
C463       C1142   1.407       .  A
C466        C467   1.393       .  A
C466       C1139   1.402       .  A
C466        F471   1.358       .  S
C467       C1144   1.405       .  A
C467        F473   1.358       .  S
C468        C469   1.404       .  A
C468       C1143   1.403       .  A
C469        C470   1.398       .  A
C469        F472   1.357       .  S
C470        F474   1.358       .  S
C477        C478   1.403       .  A
C477        C482   1.398       .  A
C477        F495   1.358       .  S
C478        C483   1.472       .  S
C478       C1155   1.405   1_545  A
C479        C480   1.394       .  A
C479       C1154   1.403       .  A
C479        F484   1.358       .  S
C480       C1157   1.404       .  A
C480        F496   1.358       .  S
C481        C482   1.408       .  A
C481       C1156   1.405   1_545  A
C482        F485   1.358       .  S
C483        C486   1.406       .  A
C483       C1166   1.403       .  A
C486        C487   1.395       .  A
C486        F491   1.356       .  S
C487        C488   1.402       .  A
C487        F493   1.358       .  S
C488       C1165   1.404       .  A
C489        C490   1.397       .  A
C489       C1164   1.405       .  A
C489        F492   1.358       .  S
C490       C1159   1.402       .  A
C490        F494   1.358       .  S
C497        C498   1.409       .  A
C497        C502   1.395       .  A
C497        F515   1.359       .  S
C498        C503   1.497       .  S
C498       C1851   1.411       .  A
C499        C500   1.401       .  A
C499       C1850   1.411       .  A
C499        F504   1.355       .  S
C500       C1853   1.409       .  A
C500        F516   1.356       .  S
C501        C502   1.410       .  A
C501       C1852   1.409       .  A
C502        F505   1.358       .  S
C503        C506   1.410       .  A
C503        C510   1.411       .  A
C506        C507   1.390       .  A
C506        F511   1.358       .  S
C507        C508   1.409       .  A
C507        F513   1.358       .  S
C508        C509   1.412       .  A
C509        C510   1.405       .  A
C509        F512   1.357       .  S
C510        F514   1.357       .  S
C517        C518   1.410       .  A
C517        C522   1.398       .  A
C517        F535   1.358       .  S
C518        C523   1.487       .  S
C518        C519   1.408       .  A
C519        C520   1.399       .  A
C519        F524   1.358       .  S
C520        C521   1.404       .  A
C520        F536   1.358       .  S
C521        C522   1.405       .  A
C522        F525   1.358       .  S
C523        C526   1.409       .  A
C523        C530   1.407       .  A
C526        C527   1.396       .  A
C526        F531   1.358       .  S
C527        C528   1.404       .  A
C527        F533   1.358       .  S
C528        C529   1.403       .  A
C529        C530   1.399       .  A
C529        F532   1.358       .  S
C530        F534   1.354       .  S
C537        C538   1.406       .  A
C537        C542   1.399       .  A
C537        F555   1.358       .  S
C538        C543   1.485       .  S
C538        C539   1.406       .  A
C539        C540   1.406       .  A
C539        F544   1.357       .  S
C540        C541   1.407       .  A
C540        F556   1.357   1_455  S
C541        C542   1.406       .  A
C542        F545   1.358       .  S
C543        C546   1.405       .  A
C543        C550   1.406       .  A
C546        C547   1.401       .  A
C546        F551   1.358       .  S
C547        C548   1.408       .  A
C547        F553   1.358       .  S
C548        C549   1.406       .  A
C549        C550   1.403       .  A
C549        F552   1.357       .  S
C550        F554   1.358       .  S
C557        C562   1.398       .  A
C557       C1910   1.406       .  A
C557        F575   1.358       .  S
C558        C563   1.482       .  S
C558        C559   1.408       .  A
C558       C1909   1.406       .  A
C559        C560   1.399       .  A
C559        F564   1.358       .  S
C560        C561   1.404       .  A
C560        F576   1.358       .  S
C561       C1914   1.404       .  A
C562       C1913   1.404       .  A
C562        F565   1.358       .  S
C563        C570   1.406       .  A
C563       C1918   1.408       .  A
C566        C567   1.395       .  A
C566       C1915   1.407       .  A
C566        F571   1.358       .  S
C567        C568   1.402       .  A
C567        F573   1.358   1_655  S
C568       C1921   1.407       .  A
C569        C570   1.401       .  A
C569       C1920   1.406       .  A
C569        F572   1.357       .  S
C570        F574   1.358       .  S
C577        C578   1.405       .  A
C577        C582   1.407       .  A
C577        F595   1.357       .  S
C578        C583   1.479       .  S
C578       C1255   1.403       .  A
C579        C580   1.397       .  A
C579       C1254   1.405       .  A
C579        F584   1.358       .  S
C580       C1257   1.406       .  A
C580        F596   1.358       .  S
C581        C728   1.490       .  S
C581        C582   1.408       .  A
C581       C1256   1.407       .  A
C582        F585   1.357       .  S
C583        C590   1.405       .  A
C583       C1262   1.405       .  A
C586        C587   1.404       .  A
C586       C1259   1.407       .  A
C586        F591   1.357       .  S
C587       C1264   1.406       .  A
C587        F593   1.358       .  S
C588        C589   1.404       .  A
C588       C1263   1.406       .  A
C589        C590   1.401       .  A
C589        F592   1.357       .  S
C590        F594   1.357       .  S
C597        C598   1.405       .  A
C597        C602   1.393       .  A
C597        F615   1.358       .  S
C598        C603   1.473       .  S
C598        C599   1.406       .  A
C599        C600   1.396       .  A
C599        F604   1.358       .  S
C600        C601   1.403       .  A
C600        F616   1.358       .  S
C601        C602   1.402       .  A
C602        F605   1.358       .  S
C603        C606   1.401       .  A
C603        C610   1.408       .  A
C606        C607   1.395       .  A
C606        F611   1.357       .  S
C607        C608   1.407       .  A
C607        F613   1.357       .  S
C608        C609   1.402       .  A
C609        C610   1.396       .  A
C609        F612   1.358       .  S
C610        F614   1.358       .  S
C617        C618   1.416       .  A
C617        C622   1.406       .  A
C617        F635   1.357       .  S
C618        C623   1.499       .  S
C618        C619   1.407       .  A
C619        C620   1.395       .  A
C619        F624   1.358       .  S
C620        C621   1.412       .  A
C620        F636   1.359       .  S
C621        C622   1.404       .  A
C622        F625   1.357       .  S
C623        C626   1.411       .  A
C623        C630   1.413       .  A
C626        C627   1.402       .  A
C626        F631   1.358       .  S
C627        C628   1.410       .  A
C627        F633   1.358       .  S
C628        C629   1.406       .  A
C629        C630   1.400       .  A
C629        F632   1.358       .  S
C630        F634   1.358       .  S
C637        C642   1.396       .  A
C637       C1990   1.411       .  A
C637        F655   1.358       .  S
C638        C643   1.505       .  S
C638        C639   1.414   1_655  A
C638       C1989   1.412       .  A
C639        C640   1.406       .  A
C639        F644   1.357       .  S
C640        C641   1.408   1_455  A
C640        F656   1.358       .  S
C641       C1994   1.407       .  A
C642       C1993   1.407       .  A
C642        F645   1.356       .  S
C643        C650   1.416   1_655  A
C643       C1998   1.410       .  A
C646        C647   1.394       .  A
C646       C1995   1.410       .  A
C646        F651   1.358       .  S
C647       C2000   1.409       .  A
C647        F653   1.359       .  S
C648        C649   1.408       .  A
C648       C1999   1.409   1_455  A
C649        C650   1.410       .  A
C649        F652   1.357       .  S
C650        F654   1.357       .  S
C657        C662   1.399       .  A
C657       C1334   1.423       .  A
C657        F675   1.354       .  S
C658        C663   1.530       .  S
C658        C659   1.420       .  A
C658       C1333   1.425       .  A
C659        C660   1.401       .  A
C659        F664   1.356       .  S
C660        C661   1.407       .  A
C660        F676   1.357       .  S
C661       C1338   1.402       .  A
C662       C1337   1.400       .  A
C662        F665   1.359       .  S
C663        C666   1.419       .  A
C663       C1346   1.421       .  A
C666        C667   1.406       .  A
C666        F671   1.355       .  S
C667        C668   1.414       .  A
C667        F673   1.357       .  S
C668        C725   1.522       .  S
C668       C1345   1.408       .  A
C669        C670   1.398       .  A
C669       C1344   1.406       .  A
C669        F672   1.357       .  S
C670       C1339   1.420       .  A
C670        F674   1.355       .  S
In677       O679   2.284       .  S
In677       O680   2.242       .  S
In677       O688   2.289       .  S
In677       O682   2.243       .  S
In677       O684   2.241       .  S
In677       O685   2.236       .  S
In677       O686   2.289       .  S
In677       O689   2.286       .  S
C678        O684   1.262       .  A
C678        O686   1.259       .  A
C678        C831   1.494       .  S
O679        C687   1.259       .  A
O680        C687   1.261       .  A
C681        O688   1.259       .  A
C681        O682   1.261       .  A
C681        C754   1.498       .  S
C683        O685   1.259       .  A
C683        O689   1.259       .  A
C683       C1022   1.493       .  S
C687        C953   1.492       .  S
N690       C2046   1.359   1_545  A
N690       H1398   1.038       .  S
N691        C698   1.354       .  A
N691        C699   1.357       .  A
N692        C697   1.350       .  A
N692        C696   1.352       .  A
N692        H723   1.042       .  S
N693        C700   1.347       .  A
N693        C701   1.352       .  A
C694       N2042   1.359   1_565  A
C694       C2054   1.385       .  A
C694        C710   1.426       .  A
C695        C711   1.432       .  A
C696        C704   1.394       .  A
C697       C2064   1.406       .  A
C697        C705   1.379       .  A
C698        C710   1.422       .  A
C698        C706   1.388       .  A
C699        C713   1.419       .  A
C699        C707   1.383       .  A
C700        C708   1.391       .  A
C700        C711   1.418       .  A
C701        C709   1.381       .  A
C701        C712   1.409       .  A
C702       C2046   1.385   1_455  A
C702        C703   1.382   1_565  A
C702        H714   1.082       .  S
C703        H715   1.081       .  S
C704        C705   1.368       .  A
C704        H716   1.074       .  S
C705        H717   1.083       .  S
C706        C707   1.369       .  A
C706        H718   1.078       .  S
C707        H719   1.081       .  S
C708        C709   1.379       .  A
C708        H720   1.080       .  S
C709        H721   1.082       .  S
C710        C987   1.500       .  S
C711        C977   1.501       .  S
C712       C1324   1.500   1_455  S
C712       C2049   1.406       .  A
C713       C1337   1.500       .  S
H722       N1366   1.037       .  S
C724       C1304   1.486       .  S
C724        C725   1.436       .  A
C724        C729   1.412       .  A
C726        C727   1.397       .  A
C726        H731   1.081       .  S
C727       C1284   1.482       .  S
C727        C728   1.408   1_565  A
C729        H730   1.084       .  S
N732        C737   1.349       .  A
N732        C736   1.350   1_565  A
N732        H764   1.041   1_565  S
N733        C740   1.354       .  A
N733        C741   1.351       .  A
N734       C2090   1.358       .  A
N734       H1441   1.041       .  S
N735        C742   1.354       .  A
N735        C743   1.350       .  A
C736        C744   1.388   1_545  A
C737       C2105   1.409   1_455  A
C737        C745   1.387       .  A
C738       N2086   1.357   1_455  A
C738       C2098   1.386       .  A
C738        C755   1.423       .  A
C739        C754   1.429       .  A
C740        C752   1.408       .  A
C740        C748   1.379       .  A
C741        C755   1.417       .  A
C741        C749   1.388       .  A
C742        C750   1.380       .  A
C742        C753   1.406       .  A
C743        C751   1.390       .  A
C743        C754   1.416       .  A
C744        C745   1.374       .  A
C744        H756   1.082       .  S
C745        H757   1.082       .  S
C746       C2090   1.386       .  A
C746        C747   1.385       .  A
C746        H758   1.082       .  S
C747        H759   1.082       .  S
C748        C749   1.375       .  A
C748        H760   1.080       .  S
C749        H761   1.082       .  S
C750        C751   1.373       .  A
C750        H762   1.081       .  S
C751        H763   1.082       .  S
C752       C1264   1.491       .  S
C753       C1237   1.485       .  S
C753       C2089   1.409       .  A
C755        C924   1.494       .  S
H765       N1410   1.040   1_655  S
C766       C1317   1.496       .  S
C766       C2119   1.421       .  A
C766        C771   1.411   1_655  A
C767       C1197   1.483       .  S
C767       C2118   1.421       .  A
C767        C768   1.399       .  A
C768       C2121   1.400       .  A
C768        H773   1.085       .  S
C769       C1244   1.479       .  S
C769       C2120   1.400       .  A
C769        C770   1.413   1_655  A
C770       C1217   1.486       .  S
C770        C771   1.408       .  A
C771        H772   1.084       .  S
N774        C779   1.344       .  A
N774        C778   1.345       .  A
N774        H806   1.042       .  S
N775        C782   1.354       .  A
N775        C783   1.348       .  A
N776        C781   1.362       .  A
N776        C780   1.360       .  A
N776        H807   1.041       .  S
N777        C784   1.355       .  A
N777        C785   1.345       .  A
C778        C786   1.389       .  A
C778        C794   1.405       .  A
C779        C795   1.404       .  A
C779        C787   1.385       .  A
C780        C788   1.384       .  A
C780        C797   1.428       .  A
C781        C796   1.437       .  A
C781        C789   1.391       .  A
C782        C794   1.410       .  A
C782        C790   1.383       .  A
C783        C797   1.413       .  A
C783        C791   1.389       .  A
C784        C792   1.383       .  A
C784        C795   1.412       .  A
C785        C793   1.389       .  A
C785        C796   1.416       .  A
C786        C787   1.376       .  A
C786        H798   1.081       .  S
C787        H799   1.083       .  S
C788        C789   1.388       .  A
C788        H800   1.082       .  S
C789        H801   1.080       .  S
C790        C791   1.374       .  A
C790        H802   1.082       .  S
C791        H803   1.082       .  S
C792        C793   1.380       .  A
C792        H804   1.081       .  S
C793        H805   1.082       .  S
C794       C1204   1.481       .  S
C795       C1297   1.495       .  S
C796        C974   1.505       .  S
C797        C990   1.497       .  S
N808        C813   1.350       .  A
N808        C812   1.348       .  A
N808        H840   1.041       .  S
N809        C816   1.350       .  A
N809        C817   1.348       .  A
N810        C815   1.357       .  A
N810        C814   1.361       .  A
N810        H841   1.040       .  S
N811        C818   1.356       .  A
N811        C819   1.350       .  A
C812        C820   1.388       .  A
C812        C828   1.407       .  A
C813        C829   1.408       .  A
C813        C821   1.387       .  A
C814        C822   1.386       .  A
C814        C831   1.426       .  A
C815        C830   1.427       .  A
C815        C823   1.389       .  A
C816        C828   1.402       .  A
C816        C824   1.381       .  A
C817        C831   1.412       .  A
C817        C825   1.390       .  A
C818        C826   1.379       .  A
C818        C829   1.411       .  A
C819        C827   1.390       .  A
C819        C830   1.420       .  A
C820        C821   1.373       .  A
C820        H832   1.082       .  S
C821        H833   1.082       .  S
C822        C823   1.384       .  A
C822        H834   1.082       .  S
C823        H835   1.082       .  S
C824        C825   1.372       .  A
C824        H836   1.081       .  S
C825        H837   1.082       .  S
C826        C827   1.378       .  A
C826        H838   1.080       .  S
C827        H839   1.082       .  S
C828       C1277   1.476       .  S
C829       C1224   1.492       .  S
C830        C928   1.493       .  S
C842       C1177   1.505       .  S
C842       C1519   1.427   1_565  A
C842        C847   1.403       .  A
C843       C1157   1.481   1_655  S
C843       C1518   1.425       .  A
C843        C844   1.408   1_655  A
C844       C2197   1.404   1_454  A
C844        H849   1.084       .  S
C845       C2476   1.492       .  S
C845       C2196   1.404   1_556  A
C845        C846   1.413       .  A
C846       C1137   1.475       .  S
C847        H848   1.083       .  S
N850        C854   1.360       .  A
N850        H882   1.038       .  S
N851        C858   1.351       .  A
N851        C859   1.355       .  A
N852        C857   1.353       .  A
N852        C856   1.359       .  A
N852        H883   1.037       .  S
N853        C860   1.354       .  A
N853        C861   1.356       .  A
C854        C870   1.432       .  A
C855        C871   1.435       .  A
C855        C863   1.387       .  A
C856        C864   1.387       .  A
C856        C873   1.420       .  A
C857        C865   1.391       .  A
C858        C870   1.424       .  A
C858        C866   1.390       .  A
C859        C873   1.415       .  A
C859        C867   1.382       .  A
C860        C868   1.391       .  A
C860        C871   1.424       .  A
C861        C869   1.379       .  A
C861        C872   1.412       .  A
C862        C863   1.390   1_545  A
C863        H875   1.082       .  S
C864        C865   1.364       .  A
C864        H876   1.082       .  S
C865        H877   1.081       .  S
C866        C867   1.372       .  A
C866        H878   1.082       .  S
C867        H879   1.082       .  S
C868        C869   1.367       .  A
C868        H880   1.077       .  S
C869        H881   1.081       .  S
C870        C979   1.501       .  S
C871        C996   1.504       .  S
C872       C1144   1.483       .  S
C873       C1097   1.499       .  S
N884        C889   1.351       .  A
N884        C888   1.353       .  A
N884        H916   1.036       .  S
N885        C892   1.358       .  A
N885        C893   1.352       .  A
N886       C2243   1.364   1_455  A
N886        C890   1.358       .  A
N886       H2269   1.037       .  S
N887        C894   1.352       .  A
N887        C895   1.350       .  A
C888        C896   1.387       .  A
C888       C2256   1.412       .  A
C889        C905   1.413       .  A
C889        C897   1.389       .  A
C890        C898   1.387       .  A
C890        C907   1.428       .  A
C891       N2238   1.364       .  A
C891        C906   1.432       .  A
C891       C2251   1.387       .  A
C892        C904   1.411       .  A
C892        C900   1.381       .  A
C893        C907   1.423       .  A
C893        C901   1.391       .  A
C894        C902   1.382       .  A
C894        C905   1.406       .  A
C895        C903   1.388       .  A
C895        C906   1.415       .  A
C896        C897   1.370       .  A
C896        H908   1.082       .  S
C897        H909   1.082       .  S
C898        C899   1.385   1_455  A
C898        H910   1.082       .  S
C899       C2243   1.387       .  A
C899        H911   1.081       .  S
C900        C901   1.372       .  A
C900        H912   1.083       .  S
C901        H913   1.078       .  S
C902        C903   1.374       .  A
C902        H914   1.081       .  S
C903        H915   1.081       .  S
C904       C1117   1.493       .  S
C904       C2240   1.411   1_455  A
C905       C1077   1.481       .  S
C906        C992   1.505       .  S
C907        C983   1.493       .  S
H917       N2238   1.037       .  S
In918       O920   2.280       .  S
In918       O921   2.248       .  S
In918       O929   2.304       .  S
In918       O923   2.259       .  S
In918       O925   2.254       .  S
In918       O926   2.246       .  S
In918       O927   2.291       .  S
In918       O930   2.293       .  S
C919        O925   1.262       .  A
C919        O927   1.260       .  A
C919        C954   1.498       .  S
O920        C928   1.261       .  A
O921        C928   1.260       .  A
C922        O929   1.261       .  A
C922        O923   1.260       .  A
C922       C1021   1.504       .  S
C924        O926   1.260       .  A
C924        O930   1.262       .  A
N931        C936   1.349       .  A
N931        C935   1.347       .  A
N931        H963   1.041       .  S
N932        C939   1.353       .  A
N932        C940   1.349       .  A
N933        C937   1.360       .  A
N934        C941   1.355       .  A
N934        C942   1.348       .  A
C935        C943   1.390       .  A
C936        C952   1.406       .  A
C936        C944   1.386       .  A
C937        C945   1.387       .  A
C937        C954   1.427       .  A
C938        C953   1.429       .  A
C939        C951   1.408       .  A
C939        C947   1.383       .  A
C940        C954   1.413       .  A
C940        C948   1.386       .  A
C941        C949   1.376       .  A
C941        C952   1.406       .  A
C942        C950   1.390       .  A
C942        C953   1.415       .  A
C943        C944   1.373       .  A
C943        H955   1.082       .  S
C944        H956   1.083       .  S
C945        C946   1.385       .  A
C945        H957   1.082       .  S
C946        H958   1.082       .  S
C947        C948   1.375       .  A
C947        H959   1.082       .  S
C948        H960   1.080       .  S
C949        C950   1.373       .  A
C949        H961   1.076       .  S
C950        H962   1.082       .  S
C951       C1164   1.478       .  S
C952       C1064   1.492       .  S
C965       C1084   1.470       .  S
C965        C966   1.415       .  A
C965        C970   1.401   1_556  A
C966       C1104   1.491       .  S
C966        C967   1.404   1_556  A
C967        C968   1.405       .  A
C967        H972   1.084   1_554  S
C968       C1037   1.471       .  S
C968        C969   1.413       .  A
C969       C1057   1.486       .  S
C969        C970   1.396       .  A
C970        H971   1.085       .  S
In973       O975   2.240       .  S
In973       O976   2.288       .  S
In973       O984   2.292       .  S
In973       O978   2.250       .  S
In973       O980   2.245       .  S
In973       O981   2.242       .  S
In973       O982   2.292       .  S
In973       O985   2.303       .  S
C974        O980   1.263       .  A
C974        O982   1.262       .  A
O975        C983   1.260       .  A
O976        C983   1.263       .  A
C977        O984   1.263       .  A
C977        O978   1.257       .  A
C979        O981   1.258       .  A
C979        O985   1.260       .  A
In986       O988   2.310       .  S
In986       O989   2.256       .  S
In986       O997   2.300       .  S
In986       O991   2.243       .  S
In986       O993   2.286       .  S
In986       O994   2.259       .  S
In986       O995   2.266       .  S
In986       O998   2.313       .  S
C987        O993   1.259       .  A
C987        O995   1.261       .  A
O988        C996   1.262       .  A
O989        C996   1.261       .  A
C990        O997   1.261       .  A
C990        O991   1.261       .  A
C992        O994   1.260       .  A
C992        O998   1.260       .  A
N999       C1004   1.345       .  A
N999       C1003   1.349       .  A
N999       H1031   1.042       .  S
N1000      C1007   1.355       .  A
N1000      C1008   1.345       .  A
N1001      C2358   1.360       .  A
N1001      C1005   1.358       .  A
N1001      H2384   1.041       .  S
N1002      C1009   1.352       .  A
N1002      C1010   1.350       .  A
C1003      C1011   1.387       .  A
C1003      C2371   1.410   1_455  A
C1004      C1020   1.406       .  A
C1004      C1012   1.389       .  A
C1005      C1013   1.389       .  A
C1005      C1022   1.429       .  A
C1006      N2353   1.360       .  A
C1006      C1021   1.427       .  A
C1006      C2366   1.386       .  A
C1007      C1019   1.411       .  A
C1007      C1015   1.380       .  A
C1008      C1022   1.414       .  A
C1008      C1016   1.389       .  A
C1009      C1017   1.383       .  A
C1009      C1020   1.407       .  A
C1010      C1018   1.386       .  A
C1010      C1021   1.414       .  A
C1011      C1012   1.377       .  A
C1011      H1023   1.083       .  S
C1012      H1024   1.082       .  S
C1013      C1014   1.387       .  A
C1013      H1025   1.081       .  S
C1014      C2358   1.386       .  A
C1014      H1026   1.082       .  S
C1015      C1016   1.378       .  A
C1015      H1027   1.080       .  S
C1016      H1028   1.082       .  S
C1017      C1018   1.375       .  A
C1017      H1029   1.082       .  S
C1018      H1030   1.079       .  S
C1019      C1184   1.503       .  S
C1019      C2355   1.410       .  A
C1020      C1044   1.474       .  S
H1032      N2353   1.041       .  S
C1033      C1034   1.405       .  A
C1033      C1038   1.398       .  A
C1033      F1051   1.358       .  S
C1034      C1039   1.476       .  S
C1034      C1035   1.407       .  A
C1035      C1036   1.394       .  A
C1035      F1040   1.358       .  S
C1036      C1037   1.401       .  A
C1036      F1052   1.358       .  S
C1037      C1038   1.404       .  A
C1038      F1041   1.358       .  S
C1039      C1042   1.407       .  A
C1039      C1046   1.404       .  A
C1042      C1043   1.397       .  A
C1042      F1047   1.356       .  S
C1043      C1044   1.401       .  A
C1043      F1049   1.358       .  S
C1044      C1045   1.403       .  A
C1045      C1046   1.394       .  A
C1045      F1048   1.358       .  S
C1046      F1050   1.358       .  S
C1053      C1054   1.408       .  A
C1053      C1058   1.398       .  A
C1053      F1071   1.358       .  S
C1054      C1059   1.484       .  S
C1054      C1055   1.405       .  A
C1055      C1056   1.404       .  A
C1055      F1060   1.357       .  S
C1056      C1057   1.406       .  A
C1056      F1072   1.357       .  S
C1057      C1058   1.404       .  A
C1058      F1061   1.358       .  S
C1059      C1062   1.407       .  A
C1059      C1066   1.404       .  A
C1062      C1063   1.403       .  A
C1062      F1067   1.357       .  S
C1063      C1064   1.406       .  A
C1063      F1069   1.357       .  S
C1064      C1065   1.407       .  A
C1065      C1066   1.398       .  A
C1065      F1068   1.358       .  S
C1066      F1070   1.358       .  S
C1073      C1074   1.408       .  A
C1073      C1078   1.395       .  A
C1073      F1091   1.358       .  S
C1074      C1079   1.482       .  S
C1074      C1075   1.408       .  A
C1075      C1076   1.399       .  A
C1075      F1080   1.358       .  S
C1076      C1077   1.403       .  A
C1076      F1092   1.357       .  S
C1077      C1078   1.403       .  A
C1078      F1081   1.358       .  S
C1079      C1082   1.411       .  A
C1079      C1086   1.407       .  A
C1082      C1083   1.396       .  A
C1082      F1087   1.358       .  S
C1083      C1084   1.400       .  A
C1083      F1089   1.358       .  S
C1084      C1085   1.402       .  A
C1085      C1086   1.395       .  A
C1085      F1088   1.358       .  S
C1086      F1090   1.357       .  S
C1093      C1094   1.409       .  A
C1093      C1098   1.402       .  A
C1093      F1111   1.358       .  S
C1094      C1099   1.496       .  S
C1094      C1095   1.410       .  A
C1095      C1096   1.406       .  A
C1095      F1100   1.357       .  S
C1096      C1097   1.407       .  A
C1096      F1112   1.358       .  S
C1097      C1098   1.405       .  A
C1098      F1101   1.357       .  S
C1099      C1102   1.409       .  A
C1099      C1106   1.411       .  A
C1102      C1103   1.406       .  A
C1102      F1107   1.357       .  S
C1103      C1104   1.406       .  A
C1103      F1109   1.357       .  S
C1104      C1105   1.404       .  A
C1105      C1106   1.401       .  A
C1105      F1108   1.358       .  S
C1106      F1110   1.358       .  S
C1113      C1114   1.405       .  A
C1113      C1118   1.402       .  A
C1113      F1131   1.358       .  S
C1114      C1119   1.484       .  S
C1114      C2467   1.407       .  A
C1115      C2466   1.407       .  A
C1115      C1116   1.403       .  A
C1115      F1120   1.358       .  S
C1116      C2469   1.406       .  A
C1116      F1132   1.358       .  S
C1117      C2468   1.406       .  A
C1117      C1118   1.407       .  A
C1118      F1121   1.358       .  S
C1119      C1122   1.404   1_455  A
C1119      C2478   1.406       .  A
C1122      C1123   1.398       .  A
C1122      F1127   1.358       .  S
C1123      C1124   1.407       .  A
C1123      F1129   1.357       .  S
C1124      C2197   1.492       .  S
C1124      C2477   1.409   1_655  A
C1125      C2476   1.409       .  A
C1125      C1126   1.407       .  A
C1125      F1128   1.357       .  S
C1126      C2471   1.406       .  A
C1126      F1130   1.357       .  S
C1133      C1134   1.410       .  A
C1133      C1138   1.394       .  A
C1133      F1151   1.358       .  S
C1135      C1136   1.396       .  A
C1135      F1140   1.358       .  S
C1136      F1152   1.358       .  S
C1137      C1138   1.400       .  A
C1138      F1141   1.358       .  S
C1139      C1146   1.404       .  A
C1142      C1143   1.393       .  A
C1142      F1147   1.358       .  S
C1143      F1149   1.358       .  S
C1144      C1145   1.405       .  A
C1145      C1146   1.400       .  A
C1145      F1148   1.357       .  S
C1146      F1150   1.356       .  S
C1153      C1154   1.402       .  A
C1153      C1158   1.402       .  A
C1153      F1171   1.358       .  S
C1154      C1159   1.471       .  S
C1155      C1156   1.395       .  A
C1155      F1160   1.358       .  S
C1156      F1172   1.358       .  S
C1157      C1158   1.408       .  A
C1158      F1161   1.358       .  S
C1159      C1162   1.405       .  A
C1162      C1163   1.398       .  A
C1162      F1167   1.357       .  S
C1163      C1164   1.403       .  A
C1163      F1169   1.358       .  S
C1165      C1166   1.396       .  A
C1165      F1168   1.358       .  S
C1166      F1170   1.358       .  S
C1173      C1174   1.411       .  A
C1173      C1178   1.399       .  A
C1173      F1191   1.358       .  S
C1174      C1179   1.507       .  S
C1174      C2527   1.414       .  A
C1175      C2526   1.414       .  A
C1175      C1176   1.403       .  A
C1175      F1180   1.355       .  S
C1176      C2529   1.409       .  A
C1176      F1192   1.356   1_565  S
C1177      C2528   1.409       .  A
C1177      C1178   1.410       .  A
C1178      F1181   1.358       .  S
C1179      C1182   1.413       .  A
C1179      C1186   1.416       .  A
C1182      C1183   1.393       .  A
C1182      F1187   1.357       .  S
C1183      C1184   1.406       .  A
C1183      F1189   1.359       .  S
C1184      C1185   1.409       .  A
C1185      C1186   1.409       .  A
C1185      F1188   1.357       .  S
C1186      F1190   1.357       .  S
C1193      C1194   1.408       .  A
C1193      C1198   1.398       .  A
C1193      F1211   1.358       .  S
C1194      C1199   1.484       .  S
C1194      C1195   1.407       .  A
C1195      C1196   1.398       .  A
C1195      F1200   1.358       .  S
C1196      C1197   1.405       .  A
C1196      F1212   1.358       .  S
C1197      C1198   1.405       .  A
C1198      F1201   1.358       .  S
C1199      C1202   1.407       .  A
C1199      C1206   1.406       .  A
C1202      C1203   1.395       .  A
C1202      F1207   1.358       .  S
C1203      C1204   1.405       .  A
C1203      F1209   1.359       .  S
C1204      C1205   1.402       .  A
C1205      C1206   1.398       .  A
C1205      F1208   1.357       .  S
C1206      F1210   1.352       .  S
C1213      C1214   1.407       .  A
C1213      C1218   1.398       .  A
C1213      F1231   1.358       .  S
C1214      C1219   1.488       .  S
C1214      C1215   1.408       .  A
C1215      C1216   1.407       .  A
C1215      F1220   1.357       .  S
C1216      C1217   1.406       .  A
C1216      F1232   1.357   1_455  S
C1217      C1218   1.404       .  A
C1218      F1221   1.358       .  S
C1219      C1222   1.407       .  A
C1219      C1226   1.407       .  A
C1222      C1223   1.402       .  A
C1222      F1227   1.358       .  S
C1223      C1224   1.407       .  A
C1223      F1229   1.358       .  S
C1224      C1225   1.406       .  A
C1225      C1226   1.403       .  A
C1225      F1228   1.357       .  S
C1226      F1230   1.358       .  S
C1233      C2586   1.407       .  A
C1233      C1238   1.399       .  A
C1233      F1251   1.358       .  S
C1234      C1239   1.484       .  S
C1234      C2585   1.407       .  A
C1234      C1235   1.407       .  A
C1235      C1236   1.398       .  A
C1235      F1240   1.358       .  S
C1236      C1237   1.405       .  A
C1236      F1252   1.358       .  S
C1237      C2590   1.404       .  A
C1238      C2589   1.404       .  A
C1238      F1241   1.358       .  S
C1239      C2594   1.409       .  A
C1239      C1246   1.406       .  A
C1242      C2591   1.409       .  A
C1242      C1243   1.398       .  A
C1242      F1247   1.358   1_655  S
C1243      C1244   1.403       .  A
C1243      F1249   1.358   1_655  S
C1244      C2597   1.405       .  A
C1245      C2596   1.405       .  A
C1245      C1246   1.400       .  A
C1245      F1248   1.357       .  S
C1246      F1250   1.357       .  S
C1253      C1254   1.407       .  A
C1253      C1258   1.409       .  A
C1253      F1271   1.357       .  S
C1254      C1259   1.486       .  S
C1255      C1256   1.395       .  A
C1255      F1260   1.359   1_545  S
C1256      F1272   1.358   1_545  S
C1257      C1258   1.410       .  A
C1258      F1261   1.357       .  S
C1259      C1266   1.406       .  A
C1262      C1263   1.401       .  A
C1262      F1267   1.358       .  S
C1263      F1269   1.358       .  S
C1264      C1265   1.406       .  A
C1265      C1266   1.400       .  A
C1265      F1268   1.358       .  S
C1266      F1270   1.358       .  S
C1273      C1274   1.405       .  A
C1273      C1278   1.395       .  A
C1273      F1291   1.358       .  S
C1274      C1279   1.477       .  S
C1274      C1275   1.407       .  A
C1275      C1276   1.397       .  A
C1275      F1280   1.358       .  S
C1276      C1277   1.403       .  A
C1276      F1292   1.358       .  S
C1277      C1278   1.403       .  A
C1278      F1281   1.358       .  S
C1279      C1282   1.403       .  A
C1279      C1286   1.408       .  A
C1282      C1283   1.397       .  A
C1282      F1287   1.358       .  S
C1283      C1284   1.408       .  A
C1283      F1289   1.357   1_565  S
C1284      C1285   1.403       .  A
C1285      C1286   1.397       .  A
C1285      F1288   1.358       .  S
C1286      F1290   1.358       .  S
C1293      C1294   1.414       .  A
C1293      C1298   1.404       .  A
C1293      F1311   1.358       .  S
C1294      C1299   1.492       .  S
C1294      C1295   1.405       .  A
C1295      C1296   1.392       .  A
C1295      F1300   1.358       .  S
C1296      C1297   1.411       .  A
C1296      F1312   1.359       .  S
C1297      C1298   1.405       .  A
C1298      F1301   1.357       .  S
C1299      C1302   1.409       .  A
C1299      C1306   1.412       .  A
C1302      C1303   1.397       .  A
C1302      F1307   1.358       .  S
C1303      C1304   1.408       .  A
C1303      F1309   1.358       .  S
C1304      C1305   1.404       .  A
C1305      C1306   1.398       .  A
C1305      F1308   1.358       .  S
C1306      F1310   1.358       .  S
C1313      C2666   1.411       .  A
C1313      C1318   1.397       .  A
C1313      F1331   1.358       .  S
C1314      C1319   1.500       .  S
C1314      C2665   1.411       .  A
C1314      C1315   1.413   1_655  A
C1315      C1316   1.403       .  A
C1315      F1320   1.357       .  S
C1316      C1317   1.406   1_455  A
C1316      F1332   1.357       .  S
C1317      C2670   1.407       .  A
C1318      C2669   1.407       .  A
C1318      F1321   1.357       .  S
C1319      C2674   1.409       .  A
C1319      C1326   1.415   1_655  A
C1322      C2671   1.409       .  A
C1322      C1323   1.393       .  A
C1322      F1327   1.358       .  S
C1323      C2676   1.410       .  A
C1323      F1329   1.359       .  S
C1324      C2675   1.410       .  A
C1324      C1325   1.407   1_655  A
C1325      C1326   1.407       .  A
C1325      F1328   1.357       .  S
C1326      F1330   1.357       .  S
C1333      C1338   1.404       .  A
C1333      F1351   1.354       .  S
C1334      C1339   1.520       .  S
C1334      C1335   1.417       .  A
C1335      C1336   1.398       .  A
C1335      F1340   1.356       .  S
C1336      C1337   1.407       .  A
C1336      F1352   1.358       .  S
C1338      F1341   1.359       .  S
C1339      C1342   1.417       .  A
C1342      C1343   1.399       .  A
C1342      F1347   1.355       .  S
C1343      C1344   1.413       .  A
C1343      F1349   1.357       .  S
C1345      C1346   1.402       .  A
C1345      F1348   1.356       .  S
C1346      F1350   1.355       .  S
In1353     O1355   2.285       .  S
In1353     O1356   2.241       .  S
In1353     O1364   2.282       .  S
In1353     O1358   2.244       .  S
In1353     O1360   2.243       .  S
In1353     O1361   2.239       .  S
In1353     O1362   2.284       .  S
In1353     O1365   2.294       .  S
C1354      O1360   1.261       .  A
C1354      O1362   1.259       .  A
C1354      C1507   1.492       .  S
O1355      C1363   1.259       .  A
O1356      C1363   1.261       .  A
C1357      O1364   1.259       .  A
C1357      O1358   1.261       .  A
C1357      C1430   1.493       .  S
C1359      O1361   1.260       .  A
C1359      O1365   1.258       .  A
C1359      C1698   1.496       .  S
C1363      C1629   1.493       .  S
N1366      C2047   1.362       .  A
N1367      C1374   1.354       .  A
N1367      C1375   1.360       .  A
N1368      C1373   1.351   1_655  A
N1368      C1372   1.352   1_545  A
N1368      H1399   1.041       .  S
N1369      C1376   1.348       .  A
N1369      C1377   1.354       .  A
C1370      C1386   1.426       .  A
C1371      N2042   1.361       .  A
C1371      C1387   1.433       .  A
C1371      C2055   1.391       .  A
C1372      C1380   1.394       .  A
C1372      C2065   1.421       .  A
C1373      C1381   1.380       .  A
C1374      C1386   1.426       .  A
C1374      C1382   1.388       .  A
C1375      C1389   1.423       .  A
C1375      C1383   1.383       .  A
C1376      C1384   1.393       .  A
C1376      C1387   1.421       .  A
C1377      C1385   1.380       .  A
C1377      C1388   1.411       .  A
C1378      C1379   1.383       .  A
C1378      H1390   1.082       .  S
C1379      C2047   1.390       .  A
C1379      H1391   1.081       .  S
C1380      C1381   1.367   1_665  A
C1380      H1392   1.074       .  S
C1381      H1393   1.083       .  S
C1382      C1383   1.373       .  A
C1382      H1394   1.079       .  S
C1383      H1395   1.082       .  S
C1384      C1385   1.379       .  A
C1384      H1396   1.079       .  S
C1385      H1397   1.082       .  S
C1386      C1663   1.496       .  S
C1387      C1653   1.499       .  S
C1388      C2000   1.504       .  S
C1389      C2013   1.508       .  S
C1389      C2048   1.420       .  A
C1400      C1980   1.496       .  S
C1400      C1401   1.436   1_545  A
C1400      C1405   1.414       .  A
C1401      C2696   1.511       .  S
C1401      C2078   1.407       .  A
C1402      C2077   1.410       .  A
C1402      C1403   1.403       .  A
C1402      H1407   1.082       .  S
C1403      C1960   1.478       .  S
C1403      C1404   1.408       .  A
C1404      C2609   1.494       .  S
C1404      C2081   1.398       .  A
C1405      C2080   1.403       .  A
C1405      H1406   1.084       .  S
N1408      C1413   1.350       .  A
N1408      C1412   1.350       .  A
N1408      H1440   1.042       .  S
N1409      C1416   1.353       .  A
N1409      C1417   1.349       .  A
N1410      C2091   1.359   1_445  A
N1411      C1418   1.352       .  A
N1411      C1419   1.349       .  A
C1412      C1420   1.388       .  A
C1412      C2104   1.410       .  A
C1413      C1421   1.388       .  A
C1414      C1431   1.426       .  A
C1415      N2086   1.358       .  A
C1415      C1430   1.425       .  A
C1415      C2099   1.388       .  A
C1416      C1428   1.405       .  A
C1416      C1424   1.379       .  A
C1417      C1431   1.415       .  A
C1417      C1425   1.390       .  A
C1418      C1426   1.380       .  A
C1418      C1429   1.404       .  A
C1419      C1427   1.390       .  A
C1419      C1430   1.415       .  A
C1420      C1421   1.374       .  A
C1420      H1432   1.082       .  S
C1421      H1433   1.082       .  S
C1422      C1423   1.386   1_445  A
C1422      H1434   1.082       .  S
C1423      C2091   1.388       .  A
C1423      H1435   1.081       .  S
C1424      C1425   1.375       .  A
C1424      H1436   1.079       .  S
C1425      H1437   1.082       .  S
C1426      C1427   1.373       .  A
C1426      H1438   1.081       .  S
C1427      H1439   1.082       .  S
C1428      C1940   1.486       .  S
C1428      C2088   1.409       .  A
C1429      C1913   1.483       .  S
C1431      C1600   1.493       .  S
C1442      C1993   1.501       .  S
C1442      C1447   1.412       .  A
C1443      C1873   1.485       .  S
C1443      C1444   1.399       .  A
C1444      H1449   1.085       .  S
C1445      C1920   1.481       .  S
C1445      C1446   1.414       .  A
C1446      C1893   1.489       .  S
C1446      C1447   1.409       .  A
C1447      H1448   1.083       .  S
N1450      C1455   1.344       .  A
N1450      C1454   1.347       .  A
N1450      H1482   1.042       .  S
N1451      C1458   1.353       .  A
N1451      C1459   1.345       .  A
N1452      C1457   1.359       .  A
N1452      C1456   1.358       .  A
N1452      H1483   1.041       .  S
N1453      C1460   1.355       .  A
N1453      C1461   1.347       .  A
C1454      C1462   1.389       .  A
C1454      C1470   1.407       .  A
C1455      C1471   1.403       .  A
C1455      C1463   1.385       .  A
C1456      C1464   1.385       .  A
C1456      C1473   1.423       .  A
C1457      C1472   1.432       .  A
C1457      C1465   1.391       .  A
C1458      C1470   1.408       .  A
C1458      C1466   1.382       .  A
C1459      C1473   1.410       .  A
C1459      C1467   1.388       .  A
C1460      C1468   1.383       .  A
C1460      C1471   1.414       .  A
C1461      C1469   1.390       .  A
C1461      C1472   1.419       .  A
C1462      C1463   1.375       .  A
C1462      H1474   1.080       .  S
C1463      H1475   1.083       .  S
C1464      C1465   1.387       .  A
C1464      H1476   1.082       .  S
C1465      H1477   1.081       .  S
C1466      C1467   1.374       .  A
C1466      H1478   1.082       .  S
C1467      H1479   1.082       .  S
C1468      C1469   1.382       .  A
C1468      H1480   1.082       .  S
C1469      H1481   1.082       .  S
C1470      C1880   1.484       .  S
C1471      C1973   1.497       .  S
C1472      C1650   1.500       .  S
C1473      C1666   1.487       .  S
N1484      C1489   1.349       .  A
N1484      C1488   1.348       .  A
N1484      H1516   1.042       .  S
N1485      C1492   1.350       .  A
N1485      C1493   1.347       .  A
N1486      C1491   1.357       .  A
N1486      C1490   1.360       .  A
N1486      H1517   1.041       .  S
N1487      C1494   1.356       .  A
N1487      C1495   1.350       .  A
C1488      C1496   1.387       .  A
C1488      C1504   1.405       .  A
C1489      C1505   1.407       .  A
C1489      C1497   1.388       .  A
C1490      C1498   1.386       .  A
C1490      C1507   1.425       .  A
C1491      C1506   1.427       .  A
C1491      C1499   1.389       .  A
C1492      C1504   1.400       .  A
C1492      C1500   1.380       .  A
C1493      C1507   1.411       .  A
C1493      C1501   1.390       .  A
C1494      C1502   1.378       .  A
C1494      C1505   1.410       .  A
C1495      C1503   1.390       .  A
C1495      C1506   1.419       .  A
C1496      C1497   1.372       .  A
C1496      H1508   1.082       .  S
C1497      H1509   1.082       .  S
C1498      C1499   1.385       .  A
C1498      H1510   1.082       .  S
C1499      H1511   1.082       .  S
C1500      C1501   1.372       .  A
C1500      H1512   1.081       .  S
C1501      H1513   1.082       .  S
C1502      C1503   1.377       .  A
C1502      H1514   1.080       .  S
C1503      H1515   1.082       .  S
C1504      C1953   1.474       .  S
C1505      C1900   1.491       .  S
C1506      C1604   1.493       .  S
C1518      C1853   1.500       .  S
C1518      C1523   1.402       .  A
C1519      C1833   1.480       .  S
C1519      C1520   1.408   1_554  A
C1520      H1525   1.084       .  S
C1521      C1522   1.412   1_445  A
C1522      C1813   1.476       .  S
C1522      C2199   1.400   1_556  A
C1523      C2198   1.398   1_554  A
C1523      H1524   1.084       .  S
N1526      C2207   1.362   1_545  A
N1526      C1530   1.362       .  A
N1526      H1558   1.036       .  S
N1527      C1534   1.346       .  A
N1527      C1535   1.355       .  A
N1528      C1533   1.348   1_545  A
N1528      C1532   1.352       .  A
N1528      H1559   1.036       .  S
N1529      C1536   1.354       .  A
N1529      C1537   1.353       .  A
C1530      C2214   1.387       .  A
C1530      C1546   1.434       .  A
C1531      N2202   1.361       .  A
C1531      C1547   1.429       .  A
C1531      C1539   1.386       .  A
C1532      C1540   1.386       .  A
C1532      C1549   1.410       .  A
C1533      C2224   1.410       .  A
C1533      C1541   1.389       .  A
C1534      C1546   1.415       .  A
C1534      C1542   1.390       .  A
C1535      C1549   1.409       .  A
C1535      C1543   1.382       .  A
C1536      C1544   1.389       .  A
C1536      C1547   1.420       .  A
C1537      C1545   1.383       .  A
C1537      C1548   1.413       .  A
C1538      C2206   1.389       .  A
C1538      C1539   1.382       .  A
C1538      H2226   1.081       .  S
C1539      H1551   1.081       .  S
C1540      C1541   1.370   1_545  A
C1540      H1552   1.080       .  S
C1541      H1553   1.080       .  S
C1542      C1543   1.373       .  A
C1542      H1554   1.083       .  S
C1543      H1555   1.082       .  S
C1544      C1545   1.368       .  A
C1544      H1556   1.081       .  S
C1545      H1557   1.082       .  S
C1546      C1655   1.497       .  S
C1547      C1672   1.500       .  S
C1548      C1820   1.483       .  S
C1548      C2209   1.422       .  A
C1549      C1773   1.489       .  S
H1550      C2214   1.082       .  S
N1560      C1565   1.353       .  A
N1560      C1564   1.351       .  A
N1560      H1592   1.039   1_655  S
N1561      C1568   1.357       .  A
N1561      C1569   1.353       .  A
N1562      C1566   1.360       .  A
N1563      C1570   1.352       .  A
N1563      C1571   1.348       .  A
C1564      C1572   1.388       .  A
C1565      C1581   1.412       .  A
C1565      C1573   1.387       .  A
C1566      C1574   1.388       .  A
C1566      C1583   1.430       .  A
C1567      C1582   1.429       .  A
C1568      C1580   1.414       .  A
C1568      C1576   1.383       .  A
C1569      C1583   1.422       .  A
C1569      C1577   1.388       .  A
C1570      C1578   1.381       .  A
C1570      C1581   1.404       .  A
C1571      C1579   1.390       .  A
C1571      C1582   1.414       .  A
C1572      C1573   1.371       .  A
C1572      H1584   1.082       .  S
C1573      H1585   1.082       .  S
C1574      C1575   1.385       .  A
C1574      H1586   1.082       .  S
C1575      H1587   1.082       .  S
C1576      C1577   1.375       .  A
C1576      H1588   1.083       .  S
C1577      H1589   1.079       .  S
C1578      C1579   1.373       .  A
C1578      H1590   1.081       .  S
C1579      H1591   1.082       .  S
C1580      C1793   1.494       .  S
C1581      C1753   1.485       .  S
C1582      C1668   1.495       .  S
C1583      C1659   1.503       .  S
In1594     O1596   2.286       .  S
In1594     O1597   2.240       .  S
In1594     O1605   2.298       .  S
In1594     O1599   2.255       .  S
In1594     O1601   2.252       .  S
In1594     O1602   2.235       .  S
In1594     O1603   2.303       .  S
In1594     O1606   2.285       .  S
C1595      O1601   1.261       .  A
C1595      O1603   1.261       .  A
C1595      C1630   1.501       .  S
O1596      C1604   1.262       .  A
O1597      C1604   1.260       .  A
C1598      O1605   1.259       .  A
C1598      O1599   1.261       .  A
C1598      C1697   1.499       .  S
C1600      O1602   1.261       .  A
C1600      O1606   1.262       .  A
N1607      C1612   1.349       .  A
N1607      C1611   1.347       .  A
N1607      H1639   1.040       .  S
N1608      C1615   1.352       .  A
N1608      C1616   1.350       .  A
N1609      C2290   1.359       .  A
N1609      C1613   1.361   1_565  A
N1609      H2316   1.039       .  S
N1610      C1617   1.355       .  A
N1610      C1618   1.349       .  A
C1611      C1619   1.389       .  A
C1611      C2303   1.408       .  A
C1612      C1628   1.406       .  A
C1612      C1620   1.387       .  A
C1613      C1621   1.387       .  A
C1613      C1630   1.430       .  A
C1614      N2285   1.358       .  A
C1614      C1629   1.427       .  A
C1614      C2298   1.388       .  A
C1615      C1627   1.405       .  A
C1615      C1623   1.382       .  A
C1616      C1630   1.417       .  A
C1616      C1624   1.389       .  A
C1617      C1625   1.378       .  A
C1617      C1628   1.407       .  A
C1618      C1626   1.389       .  A
C1618      C1629   1.416       .  A
C1619      C1620   1.374       .  A
C1619      H1631   1.083       .  S
C1620      H1632   1.082       .  S
C1621      C1622   1.387   1_545  A
C1621      H1633   1.082       .  S
C1622      C2290   1.388       .  A
C1622      H1634   1.082       .  S
C1623      C1624   1.372       .  A
C1623      H1635   1.082       .  S
C1624      H1636   1.081       .  S
C1625      C1626   1.374       .  A
C1625      H1637   1.079       .  S
C1626      H1638   1.081       .  S
C1627      C1840   1.474       .  S
C1627      C2287   1.408   1_545  A
C1628      C1740   1.486       .  S
H1640      N2285   1.041       .  S
C1641      C1760   1.476       .  S
C1641      C1642   1.414       .  A
C1641      C1646   1.404       .  A
C1642      C1780   1.483       .  S
C1642      C1643   1.401       .  A
C1643      C1644   1.402   1_556  A
C1643      H1648   1.084       .  S
C1644      C1713   1.472       .  S
C1644      C1645   1.415       .  A
C1645      C1733   1.488       .  S
C1645      C1646   1.401   1_554  A
C1646      H1647   1.084       .  S
In1649     O1651   2.261       .  S
In1649     O1652   2.299       .  S
In1649     O1660   2.283       .  S
In1649     O1654   2.257       .  S
In1649     O1656   2.243       .  S
In1649     O1657   2.237       .  S
In1649     O1658   2.284       .  S
In1649     O1661   2.309       .  S
C1650      O1656   1.262       .  A
C1650      O1658   1.263       .  A
O1651      C1659   1.260       .  A
O1652      C1659   1.262       .  A
C1653      O1660   1.260       .  A
C1653      O1654   1.256       .  A
C1655      O1657   1.261       .  A
C1655      O1661   1.260       .  A
In1662     O1664   2.292       .  S
In1662     O1665   2.250       .  S
In1662     O1673   2.290       .  S
In1662     O1667   2.237       .  S
In1662     O1669   2.281       .  S
In1662     O1670   2.241       .  S
In1662     O1671   2.264       .  S
In1662     O1674   2.299       .  S
C1663      O1669   1.261       .  A
C1663      O1671   1.260       .  A
O1664      C1672   1.261       .  A
O1665      C1672   1.262       .  A
C1666      O1673   1.259       .  A
C1666      O1667   1.260       .  A
C1668      O1670   1.260       .  A
C1668      O1674   1.260       .  A
N1675      C1680   1.342       .  A
N1675      C1679   1.347       .  A
N1675      H1707   1.043       .  S
N1676      C1683   1.354       .  A
N1676      C1684   1.345       .  A
N1677      C1681   1.359   1_455  A
N1678      C1685   1.351       .  A
N1678      C1686   1.347       .  A
C1679      C1687   1.389       .  A
C1680      C1696   1.402       .  A
C1680      C1688   1.387       .  A
C1681      C1689   1.388   1_655  A
C1681      C1698   1.429       .  A
C1682      C1697   1.430       .  A
C1683      C1695   1.411       .  A
C1683      C1691   1.381       .  A
C1684      C1698   1.409       .  A
C1684      C1692   1.387       .  A
C1685      C1693   1.383       .  A
C1685      C1696   1.405       .  A
C1686      C1694   1.389       .  A
C1686      C1697   1.413       .  A
C1687      C1688   1.380       .  A
C1687      H1699   1.083       .  S
C1688      H1700   1.083       .  S
C1689      C1690   1.389       .  A
C1689      H1701   1.081   1_455  S
C1690      H1702   1.082       .  S
C1691      C1692   1.376       .  A
C1691      H1703   1.079       .  S
C1692      H1704   1.082       .  S
C1693      C1694   1.377       .  A
C1693      H1705   1.082       .  S
C1694      H1706   1.081       .  S
C1695      C1860   1.504       .  S
C1696      C1720   1.475       .  S
C1709      C1710   1.406       .  A
C1709      C1714   1.400       .  A
C1709      F1727   1.358       .  S
C1710      C1715   1.476       .  S
C1710      C1711   1.407       .  A
C1711      C1712   1.392       .  A
C1711      F1716   1.358       .  S
C1712      C1713   1.400       .  A
C1712      F1728   1.358       .  S
C1713      C1714   1.404       .  A
C1714      F1717   1.357       .  S
C1715      C1718   1.408       .  A
C1715      C1722   1.404       .  A
C1718      C1719   1.398       .  A
C1718      F1723   1.357       .  S
C1719      C1720   1.400       .  A
C1719      F1725   1.357       .  S
C1720      C1721   1.405       .  A
C1721      C1722   1.395       .  A
C1721      F1724   1.358       .  S
C1722      F1726   1.358       .  S
C1729      C1730   1.409       .  A
C1729      C1734   1.400       .  A
C1729      F1747   1.358       .  S
C1730      C1735   1.488       .  S
C1730      C1731   1.407       .  A
C1731      C1732   1.404       .  A
C1731      F1736   1.358       .  S
C1732      C1733   1.406       .  A
C1732      F1748   1.357       .  S
C1733      C1734   1.404       .  A
C1734      F1737   1.357       .  S
C1735      C1738   1.408       .  A
C1735      C1742   1.407       .  A
C1738      C1739   1.402       .  A
C1738      F1743   1.356       .  S
C1739      C1740   1.404       .  A
C1739      F1745   1.358       .  S
C1740      C1741   1.404       .  A
C1741      C1742   1.400       .  A
C1741      F1744   1.358       .  S
C1742      F1746   1.358       .  S
C1749      C1750   1.406       .  A
C1749      C1754   1.399       .  A
C1749      F1767   1.358       .  S
C1750      C1755   1.483       .  S
C1750      C1751   1.407       .  A
C1751      C1752   1.399       .  A
C1751      F1756   1.357       .  S
C1752      C1753   1.403       .  A
C1752      F1768   1.357       .  S
C1753      C1754   1.405       .  A
C1754      F1757   1.358       .  S
C1755      C1758   1.409       .  A
C1755      C1762   1.407       .  A
C1758      C1759   1.395       .  A
C1758      F1763   1.358       .  S
C1759      C1760   1.400       .  A
C1759      F1765   1.358       .  S
C1760      C1761   1.405       .  A
C1761      C1762   1.401       .  A
C1761      F1764   1.358       .  S
C1762      F1766   1.357       .  S
C1769      C1770   1.408       .  A
C1769      C1774   1.398       .  A
C1769      F1787   1.358       .  S
C1770      C1775   1.489       .  S
C1770      C1771   1.409       .  A
C1771      C1772   1.402       .  A
C1771      F1776   1.356       .  S
C1772      C1773   1.406       .  A
C1772      F1788   1.358       .  S
C1773      C1774   1.404       .  A
C1774      F1777   1.358       .  S
C1775      C1778   1.409       .  A
C1775      C1782   1.409       .  A
C1778      C1779   1.403       .  A
C1778      F1783   1.357       .  S
C1779      C1780   1.405       .  A
C1779      F1785   1.357       .  S
C1780      C1781   1.403       .  A
C1781      C1782   1.398       .  A
C1781      F1784   1.358       .  S
C1782      F1786   1.358       .  S
C1789      C1790   1.403       .  A
C1789      C1794   1.398       .  A
C1789      F1807   1.358       .  S
C1790      C1795   1.481       .  S
C1791      C1792   1.404       .  A
C1791      F1796   1.357       .  S
C1792      F1808   1.357       .  S
C1793      C1794   1.409       .  A
C1794      F1797   1.358       .  S
C1795      C1798   1.404       .  A
C1798      C1799   1.397       .  A
C1798      F1803   1.358       .  S
C1799      C1800   1.406       .  A
C1799      F1805   1.358       .  S
C1801      C1802   1.406       .  A
C1801      F1804   1.357       .  S
C1802      F1806   1.357       .  S
C1809      C1810   1.405       .  A
C1809      C1814   1.396       .  A
C1809      F1827   1.358       .  S
C1810      C2491   1.470       .  S
C1810      C2487   1.402       .  A
C1811      C2486   1.406       .  A
C1811      C1812   1.396       .  A
C1811      F1816   1.358       .  S
C1812      C2489   1.405       .  A
C1812      F1828   1.358       .  S
C1813      C2488   1.406       .  A
C1813      C1814   1.403       .  A
C1814      F1817   1.358   1_565  S
C1815      C2486   1.479       .  S
C1815      C2494   1.407       .  A
C1815      C1822   1.408       .  A
C1818      C2491   1.402       .  A
C1818      C1819   1.392       .  A
C1818      F1823   1.359       .  S
C1819      C2496   1.405       .  A
C1819      F1825   1.358       .  S
C1820      C2495   1.403       .  A
C1820      C1821   1.404       .  A
C1821      C1822   1.398       .  A
C1821      F1824   1.357       .  S
C1822      F1826   1.358       .  S
C1829      C1830   1.403       .  A
C1829      C1834   1.398       .  A
C1829      F1847   1.358       .  S
C1830      C1835   1.472       .  S
C1830      C2507   1.405   1_545  A
C1831      C2506   1.403       .  A
C1831      C1832   1.395       .  A
C1831      F1836   1.358       .  S
C1832      C2509   1.404       .  A
C1832      F1848   1.358       .  S
C1833      C2508   1.405   1_545  A
C1833      C1834   1.408       .  A
C1834      F1837   1.358       .  S
C1835      C1838   1.406       .  A
C1835      C2518   1.403       .  A
C1838      C1839   1.395       .  A
C1838      F1843   1.356       .  S
C1839      C1840   1.402       .  A
C1839      F1845   1.358   1_545  S
C1840      C2517   1.404       .  A
C1841      C2516   1.405       .  A
C1841      C1842   1.397       .  A
C1841      F1844   1.358       .  S
C1842      C2511   1.402       .  A
C1842      F1846   1.358       .  S
C1849      C1850   1.409       .  A
C1849      C1854   1.395       .  A
C1849      F1867   1.359       .  S
C1850      C1855   1.498       .  S
C1851      C1852   1.401       .  A
C1851      F1856   1.356       .  S
C1852      F1868   1.356       .  S
C1853      C1854   1.410       .  A
C1854      F1857   1.358       .  S
C1855      C1858   1.410       .  A
C1855      C1862   1.411       .  A
C1858      C1859   1.390       .  A
C1858      F1863   1.358       .  S
C1859      C1860   1.409       .  A
C1859      F1865   1.358   1_655  S
C1860      C1861   1.412       .  A
C1861      C1862   1.405       .  A
C1861      F1864   1.357       .  S
C1862      F1866   1.357       .  S
C1869      C1870   1.409       .  A
C1869      C1874   1.398       .  A
C1869      F1887   1.358       .  S
C1870      C1875   1.487       .  S
C1870      C1871   1.408       .  A
C1871      C1872   1.399       .  A
C1871      F1876   1.358       .  S
C1872      C1873   1.405       .  A
C1872      F1888   1.358   1_655  S
C1873      C1874   1.405       .  A
C1874      F1877   1.358       .  S
C1875      C1878   1.408       .  A
C1875      C1882   1.407       .  A
C1878      C1879   1.396       .  A
C1878      F1883   1.358       .  S
C1879      C1880   1.404       .  A
C1879      F1885   1.358       .  S
C1880      C1881   1.403       .  A
C1881      C1882   1.399       .  A
C1881      F1884   1.358       .  S
C1882      F1886   1.354       .  S
C1889      C1890   1.406       .  A
C1889      C1894   1.399       .  A
C1889      F1907   1.358       .  S
C1890      C1895   1.485       .  S
C1890      C1891   1.406       .  A
C1891      C1892   1.406       .  A
C1891      F1896   1.357       .  S
C1892      C1893   1.407       .  A
C1892      F1908   1.357       .  S
C1893      C1894   1.406       .  A
C1894      F1897   1.358       .  S
C1895      C1898   1.405       .  A
C1895      C1902   1.406       .  A
C1898      C1899   1.401       .  A
C1898      F1903   1.358       .  S
C1899      C1900   1.408       .  A
C1899      F1905   1.358       .  S
C1900      C1901   1.406       .  A
C1901      C1902   1.403       .  A
C1901      F1904   1.357       .  S
C1902      F1906   1.358       .  S
C1909      C1914   1.398       .  A
C1909      F1927   1.358       .  S
C1910      C1915   1.481       .  S
C1910      C1911   1.408       .  A
C1911      C1912   1.399       .  A
C1911      F1916   1.358       .  S
C1912      C1913   1.404       .  A
C1912      F1928   1.357       .  S
C1914      F1917   1.358       .  S
C1915      C1922   1.406       .  A
C1918      C1919   1.396       .  A
C1918      F1923   1.358       .  S
C1919      C1920   1.403       .  A
C1919      F1925   1.358       .  S
C1921      C1922   1.402       .  A
C1921      F1924   1.358       .  S
C1922      F1926   1.358       .  S
C1929      C1930   1.405       .  A
C1929      C1934   1.407       .  A
C1929      F1947   1.357       .  S
C1930      C1935   1.480       .  S
C1930      C2607   1.403       .  A
C1931      C2606   1.405       .  A
C1931      C1932   1.397       .  A
C1931      F1936   1.358       .  S
C1932      C2609   1.406       .  A
C1932      F1948   1.358       .  S
C1933      C2080   1.491       .  S
C1933      C2608   1.407       .  A
C1933      C1934   1.409       .  A
C1934      F1937   1.357       .  S
C1935      C2614   1.405       .  A
C1935      C1942   1.405       .  A
C1938      C2611   1.406       .  A
C1938      C1939   1.403       .  A
C1938      F1943   1.357       .  S
C1939      C2616   1.406       .  A
C1939      F1945   1.358       .  S
C1940      C2615   1.406       .  A
C1940      C1941   1.404       .  A
C1941      C1942   1.401       .  A
C1941      F1944   1.357       .  S
C1942      F1946   1.357       .  S
C1949      C1950   1.405       .  A
C1949      C1954   1.394       .  A
C1949      F1967   1.358       .  S
C1950      C1955   1.473       .  S
C1950      C1951   1.406       .  A
C1951      C1952   1.397       .  A
C1951      F1956   1.358       .  S
C1952      C1953   1.403       .  A
C1952      F1968   1.358       .  S
C1953      C1954   1.402       .  A
C1954      F1957   1.358       .  S
C1955      C1958   1.401       .  A
C1955      C1962   1.408       .  A
C1958      C1959   1.395       .  A
C1958      F1963   1.357       .  S
C1959      C1960   1.407       .  A
C1959      F1965   1.358       .  S
C1960      C1961   1.402       .  A
C1961      C1962   1.396       .  A
C1961      F1964   1.358       .  S
C1962      F1966   1.358       .  S
C1969      C1970   1.416       .  A
C1969      C1974   1.406       .  A
C1969      F1987   1.357       .  S
C1970      C1975   1.499       .  S
C1970      C1971   1.407       .  A
C1971      C1972   1.395       .  A
C1971      F1976   1.358       .  S
C1972      C1973   1.412       .  A
C1972      F1988   1.359       .  S
C1973      C1974   1.404       .  A
C1974      F1977   1.357       .  S
C1975      C1978   1.410       .  A
C1975      C1982   1.412       .  A
C1978      C1979   1.402       .  A
C1978      F1983   1.358       .  S
C1979      C1980   1.410       .  A
C1979      F1985   1.358       .  S
C1980      C1981   1.407       .  A
C1981      C1982   1.400       .  A
C1981      F1984   1.358       .  S
C1982      F1986   1.358       .  S
C1989      C1994   1.396       .  A
C1989      F2007   1.358       .  S
C1990      C1995   1.505       .  S
C1990      C1991   1.414       .  A
C1991      C1992   1.407       .  A
C1991      F1996   1.357       .  S
C1992      C1993   1.408       .  A
C1992      F2008   1.358       .  S
C1994      F1997   1.356       .  S
C1995      C2002   1.416       .  A
C1998      C1999   1.394       .  A
C1998      F2003   1.358       .  S
C1999      F2005   1.359       .  S
C2000      C2001   1.408       .  A
C2001      C2002   1.410       .  A
C2001      F2004   1.357       .  S
C2002      F2006   1.357       .  S
C2009      C2686   1.423       .  A
C2009      C2014   1.399       .  A
C2009      F2027   1.354       .  S
C2010      C2015   1.530       .  S
C2010      C2685   1.425       .  A
C2010      C2011   1.419       .  A
C2011      C2012   1.402       .  A
C2011      F2016   1.356       .  S
C2012      C2013   1.407       .  A
C2012      F2028   1.357       .  S
C2013      C2690   1.402       .  A
C2014      C2689   1.400       .  A
C2014      F2017   1.359       .  S
C2015      C2018   1.419       .  A
C2015      C2698   1.421       .  A
C2018      C2019   1.405       .  A
C2018      F2023   1.355       .  S
C2019      C2020   1.414       .  A
C2019      F2025   1.357       .  S
C2020      C2077   1.522       .  S
C2020      C2697   1.408       .  A
C2021      C2696   1.406       .  A
C2021      C2022   1.399       .  A
C2021      F2024   1.357       .  S
C2022      C2691   1.420       .  A
C2022      F2026   1.355       .  S
In2029     O2031   2.285       .  S
In2029     O2032   2.241       .  S
In2029     O2040   2.288       .  S
In2029     O2034   2.243       .  S
In2029     O2036   2.240       .  S
In2029     O2037   2.236       .  S
In2029     O2038   2.289       .  S
In2029     O2041   2.286       .  S
C2030      O2036   1.262       .  A
C2030      O2038   1.259       .  A
C2030      C2183   1.494       .  S
O2031      C2039   1.259       .  A
O2032      C2039   1.261       .  A
C2033      O2040   1.259       .  A
C2033      O2034   1.261       .  A
C2033      C2106   1.497       .  S
C2035      O2037   1.259       .  A
C2035      O2041   1.259       .  A
C2035      C2374   1.492       .  S
C2039      C2305   1.492       .  S
N2043      C2050   1.354       .  A
N2043      C2051   1.357       .  A
N2044      C2049   1.350   1_655  A
N2044      C2048   1.352       .  A
N2044      H2075   1.042       .  S
N2045      C2052   1.347       .  A
N2045      C2053   1.352       .  A
C2046      C2062   1.426       .  A
C2047      C2063   1.432       .  A
C2048      C2056   1.394       .  A
C2049      C2057   1.379       .  A
C2050      C2062   1.422       .  A
C2050      C2058   1.388       .  A
C2051      C2065   1.419       .  A
C2051      C2059   1.383       .  A
C2052      C2060   1.391       .  A
C2052      C2063   1.418       .  A
C2053      C2061   1.381       .  A
C2053      C2064   1.409       .  A
C2054      C2055   1.382   1_565  A
C2054      H2066   1.082       .  S
C2055      H2067   1.081       .  S
C2056      C2057   1.368   1_655  A
C2056      H2068   1.074       .  S
C2057      H2069   1.083       .  S
C2058      C2059   1.370       .  A
C2058      H2070   1.078       .  S
C2059      H2071   1.082       .  S
C2060      C2061   1.379       .  A
C2060      H2072   1.080       .  S
C2061      H2073   1.082       .  S
C2062      C2339   1.499       .  S
C2063      C2329   1.502       .  S
C2064      C2676   1.500       .  S
C2065      C2689   1.501       .  S
C2076      C2656   1.486       .  S
C2076      C2077   1.437       .  A
C2076      C2081   1.412       .  A
C2078      C2079   1.398       .  A
C2078      H2083   1.081       .  S
C2079      C2636   1.483       .  S
C2079      C2080   1.409   1_565  A
C2081      H2082   1.084       .  S
N2084      C2089   1.349       .  A
N2084      C2088   1.350   1_565  A
N2084      H2116   1.041   1_565  S
N2085      C2092   1.354       .  A
N2085      C2093   1.351       .  A
N2087      C2094   1.354       .  A
N2087      C2095   1.349       .  A
C2088      C2096   1.388   1_545  A
C2089      C2097   1.387       .  A
C2090      C2107   1.423       .  A
C2091      C2106   1.429       .  A
C2092      C2104   1.408       .  A
C2092      C2100   1.379       .  A
C2093      C2107   1.416       .  A
C2093      C2101   1.388       .  A
C2094      C2102   1.380       .  A
C2094      C2105   1.406       .  A
C2095      C2103   1.390       .  A
C2095      C2106   1.417       .  A
C2096      C2097   1.374       .  A
C2096      H2108   1.082       .  S
C2097      H2109   1.082       .  S
C2098      C2099   1.385   1_455  A
C2098      H2110   1.082       .  S
C2099      H2111   1.082       .  S
C2100      C2101   1.374       .  A
C2100      H2112   1.079       .  S
C2101      H2113   1.082       .  S
C2102      C2103   1.373       .  A
C2102      H2114   1.081       .  S
C2103      H2115   1.082       .  S
C2104      C2616   1.489       .  S
C2105      C2589   1.485       .  S
C2107      C2276   1.494       .  S
C2118      C2669   1.496       .  S
C2118      C2123   1.411       .  A
C2119      C2549   1.483       .  S
C2119      C2120   1.398       .  A
C2120      H2125   1.085       .  S
C2121      C2596   1.480       .  S
C2121      C2122   1.413       .  A
C2122      C2569   1.485       .  S
C2122      C2123   1.408       .  A
C2123      H2124   1.084       .  S
N2126      C2131   1.344       .  A
N2126      C2130   1.345       .  A
N2126      H2158   1.042       .  S
N2127      C2134   1.354       .  A
N2127      C2135   1.348       .  A
N2128      C2133   1.362       .  A
N2128      C2132   1.360       .  A
N2128      H2159   1.041       .  S
N2129      C2136   1.355       .  A
N2129      C2137   1.345       .  A
C2130      C2138   1.389       .  A
C2130      C2146   1.405       .  A
C2131      C2147   1.404       .  A
C2131      C2139   1.385       .  A
C2132      C2140   1.384       .  A
C2132      C2149   1.428       .  A
C2133      C2148   1.437       .  A
C2133      C2141   1.391       .  A
C2134      C2146   1.410       .  A
C2134      C2142   1.383       .  A
C2135      C2149   1.413       .  A
C2135      C2143   1.389       .  A
C2136      C2144   1.383       .  A
C2136      C2147   1.412       .  A
C2137      C2145   1.389       .  A
C2137      C2148   1.416       .  A
C2138      C2139   1.376       .  A
C2138      H2150   1.081       .  S
C2139      H2151   1.083       .  S
C2140      C2141   1.388       .  A
C2140      H2152   1.082       .  S
C2141      H2153   1.080       .  S
C2142      C2143   1.374       .  A
C2142      H2154   1.082       .  S
C2143      H2155   1.082       .  S
C2144      C2145   1.380       .  A
C2144      H2156   1.082       .  S
C2145      H2157   1.082       .  S
C2146      C2556   1.481       .  S
C2147      C2649   1.494       .  S
C2148      C2326   1.505       .  S
C2149      C2342   1.496       .  S
N2160      C2165   1.350       .  A
N2160      C2164   1.348       .  A
N2160      H2192   1.041       .  S
N2161      C2168   1.350       .  A
N2161      C2169   1.347       .  A
N2162      C2167   1.357       .  A
N2162      C2166   1.361       .  A
N2162      H2193   1.040       .  S
N2163      C2170   1.356       .  A
N2163      C2171   1.351       .  A
C2164      C2172   1.388       .  A
C2164      C2180   1.407       .  A
C2165      C2181   1.407       .  A
C2165      C2173   1.387       .  A
C2166      C2174   1.386       .  A
C2166      C2183   1.426       .  A
C2167      C2182   1.427       .  A
C2167      C2175   1.389       .  A
C2168      C2180   1.402       .  A
C2168      C2176   1.381       .  A
C2169      C2183   1.412       .  A
C2169      C2177   1.390       .  A
C2170      C2178   1.379       .  A
C2170      C2181   1.411       .  A
C2171      C2179   1.390       .  A
C2171      C2182   1.420       .  A
C2172      C2173   1.373       .  A
C2172      H2184   1.082       .  S
C2173      H2185   1.082       .  S
C2174      C2175   1.384       .  A
C2174      H2186   1.082       .  S
C2175      H2187   1.082       .  S
C2176      C2177   1.372       .  A
C2176      H2188   1.081       .  S
C2177      H2189   1.082       .  S
C2178      C2179   1.378       .  A
C2178      H2190   1.080       .  S
C2179      H2191   1.082       .  S
C2180      C2629   1.476       .  S
C2181      C2576   1.492       .  S
C2182      C2280   1.493       .  S
C2194      C2529   1.506       .  S
C2194      C2199   1.403       .  A
C2195      C2509   1.481       .  S
C2195      C2196   1.408       .  A
C2196      H2201   1.084       .  S
C2197      C2198   1.412       .  A
C2198      C2489   1.475       .  S
C2199      H2200   1.083       .  S
N2202      C2206   1.360       .  A
N2202      H2234   1.038       .  S
N2203      C2210   1.351       .  A
N2203      C2211   1.355       .  A
N2204      C2209   1.353       .  A
N2204      C2208   1.359       .  A
N2204      H2235   1.036       .  S
N2205      C2212   1.354       .  A
N2205      C2213   1.355       .  A
C2206      C2222   1.432       .  A
C2207      C2223   1.435       .  A
C2207      C2215   1.387       .  A
C2208      C2216   1.387       .  A
C2208      C2225   1.420       .  A
C2209      C2217   1.391       .  A
C2210      C2222   1.424       .  A
C2210      C2218   1.390       .  A
C2211      C2225   1.415       .  A
C2211      C2219   1.382       .  A
C2212      C2220   1.391       .  A
C2212      C2223   1.424       .  A
C2213      C2221   1.380       .  A
C2213      C2224   1.412       .  A
C2214      C2215   1.390   1_545  A
C2215      H2227   1.082       .  S
C2216      C2217   1.364       .  A
C2216      H2228   1.082       .  S
C2217      H2229   1.081       .  S
C2218      C2219   1.372       .  A
C2218      H2230   1.082       .  S
C2219      H2231   1.082       .  S
C2220      C2221   1.367       .  A
C2220      H2232   1.077       .  S
C2221      H2233   1.081       .  S
C2222      C2331   1.500       .  S
C2223      C2348   1.504       .  S
C2224      C2496   1.483       .  S
C2225      C2449   1.499       .  S
N2236      C2241   1.351       .  A
N2236      C2240   1.353       .  A
N2236      H2268   1.036   1_655  S
N2237      C2244   1.357       .  A
N2237      C2245   1.352       .  A
N2238      C2242   1.358       .  A
N2239      C2246   1.352       .  A
N2239      C2247   1.349       .  A
C2240      C2248   1.387       .  A
C2241      C2257   1.413       .  A
C2241      C2249   1.389       .  A
C2242      C2250   1.387       .  A
C2242      C2259   1.428       .  A
C2243      C2258   1.432       .  A
C2244      C2256   1.411       .  A
C2244      C2252   1.381       .  A
C2245      C2259   1.423       .  A
C2245      C2253   1.391       .  A
C2246      C2254   1.382       .  A
C2246      C2257   1.406       .  A
C2247      C2255   1.387       .  A
C2247      C2258   1.414       .  A
C2248      C2249   1.370       .  A
C2248      H2260   1.082       .  S
C2249      H2261   1.082       .  S
C2250      C2251   1.385       .  A
C2250      H2262   1.082       .  S
C2251      H2263   1.081       .  S
C2252      C2253   1.372       .  A
C2252      H2264   1.083       .  S
C2253      H2265   1.078       .  S
C2254      C2255   1.374       .  A
C2254      H2266   1.081       .  S
C2255      H2267   1.081       .  S
C2256      C2469   1.493       .  S
C2257      C2429   1.481       .  S
C2258      C2344   1.505       .  S
C2259      C2335   1.493       .  S
In2270     O2272   2.280       .  S
In2270     O2273   2.249       .  S
In2270     O2281   2.304       .  S
In2270     O2275   2.259       .  S
In2270     O2277   2.253       .  S
In2270     O2278   2.246       .  S
In2270     O2279   2.291       .  S
In2270     O2282   2.293       .  S
C2271      O2277   1.262       .  A
C2271      O2279   1.260       .  A
C2271      C2306   1.497       .  S
O2272      C2280   1.261       .  A
O2273      C2280   1.260       .  A
C2274      O2281   1.261       .  A
C2274      O2275   1.260       .  A
C2274      C2373   1.504       .  S
C2276      O2278   1.260       .  A
C2276      O2282   1.262       .  A
N2283      C2288   1.349       .  A
N2283      C2287   1.347       .  A
N2283      H2315   1.041       .  S
N2284      C2291   1.353       .  A
N2284      C2292   1.349       .  A
N2285      C2289   1.360       .  A
N2286      C2293   1.355       .  A
N2286      C2294   1.348       .  A
C2287      C2295   1.390       .  A
C2288      C2304   1.406       .  A
C2288      C2296   1.386       .  A
C2289      C2297   1.387       .  A
C2289      C2306   1.427       .  A
C2290      C2305   1.429       .  A
C2291      C2303   1.408       .  A
C2291      C2299   1.383       .  A
C2292      C2306   1.413       .  A
C2292      C2300   1.386       .  A
C2293      C2301   1.376       .  A
C2293      C2304   1.406       .  A
C2294      C2302   1.390       .  A
C2294      C2305   1.416       .  A
C2295      C2296   1.373       .  A
C2295      H2307   1.082       .  S
C2296      H2308   1.083       .  S
C2297      C2298   1.385       .  A
C2297      H2309   1.082       .  S
C2298      H2310   1.082       .  S
C2299      C2300   1.375       .  A
C2299      H2311   1.082       .  S
C2300      H2312   1.080       .  S
C2301      C2302   1.373       .  A
C2301      H2313   1.077       .  S
C2302      H2314   1.082       .  S
C2303      C2516   1.478       .  S
C2304      C2416   1.492       .  S
C2317      C2436   1.471       .  S
C2317      C2318   1.415       .  A
C2317      C2322   1.401   1_556  A
C2318      C2456   1.491       .  S
C2318      C2319   1.404   1_556  A
C2319      C2320   1.405       .  A
C2319      H2324   1.084   1_554  S
C2320      C2389   1.471       .  S
C2320      C2321   1.413       .  A
C2321      C2409   1.486       .  S
C2321      C2322   1.396       .  A
C2322      H2323   1.085       .  S
In2325     O2327   2.241       .  S
In2325     O2328   2.288       .  S
In2325     O2336   2.291       .  S
In2325     O2330   2.250       .  S
In2325     O2332   2.244       .  S
In2325     O2333   2.242       .  S
In2325     O2334   2.291       .  S
In2325     O2337   2.303       .  S
C2326      O2332   1.263       .  A
C2326      O2334   1.262       .  A
O2327      C2335   1.260       .  A
O2328      C2335   1.263       .  A
C2329      O2336   1.263       .  A
C2329      O2330   1.257       .  A
C2331      O2333   1.258       .  A
C2331      O2337   1.260       .  A
In2338     O2340   2.310       .  S
In2338     O2341   2.256       .  S
In2338     O2349   2.300       .  S
In2338     O2343   2.243       .  S
In2338     O2345   2.284       .  S
In2338     O2346   2.258       .  S
In2338     O2347   2.265       .  S
In2338     O2350   2.312       .  S
C2339      O2345   1.259       .  A
C2339      O2347   1.261       .  A
O2340      C2348   1.262       .  A
O2341      C2348   1.261       .  A
C2342      O2349   1.261       .  A
C2342      O2343   1.261       .  A
C2344      O2346   1.260       .  A
C2344      O2350   1.260       .  A
N2351      C2356   1.345       .  A
N2351      C2355   1.349       .  A
N2351      H2383   1.042       .  S
N2352      C2359   1.355       .  A
N2352      C2360   1.346       .  A
N2353      C2357   1.357   1_455  A
N2354      C2361   1.352       .  A
N2354      C2362   1.350       .  A
C2355      C2363   1.387       .  A
C2356      C2372   1.406       .  A
C2356      C2364   1.389       .  A
C2357      C2365   1.389   1_655  A
C2357      C2374   1.429       .  A
C2358      C2373   1.427       .  A
C2359      C2371   1.411       .  A
C2359      C2367   1.380       .  A
C2360      C2374   1.413       .  A
C2360      C2368   1.389       .  A
C2361      C2369   1.383       .  A
C2361      C2372   1.407       .  A
C2362      C2370   1.386       .  A
C2362      C2373   1.415       .  A
C2363      C2364   1.377       .  A
C2363      H2375   1.083       .  S
C2364      H2376   1.082       .  S
C2365      C2366   1.387       .  A
C2365      H2377   1.081   1_455  S
C2366      H2378   1.082       .  S
C2367      C2368   1.378       .  A
C2367      H2379   1.080       .  S
C2368      H2380   1.082       .  S
C2369      C2370   1.375       .  A
C2369      H2381   1.082       .  S
C2370      H2382   1.080       .  S
C2371      C2536   1.503       .  S
C2372      C2396   1.474       .  S
C2385      C2386   1.405       .  A
C2385      C2390   1.398       .  A
C2385      F2403   1.358       .  S
C2386      C2391   1.476       .  S
C2386      C2387   1.407       .  A
C2387      C2388   1.394       .  A
C2387      F2392   1.358       .  S
C2388      C2389   1.401       .  A
C2388      F2404   1.358       .  S
C2389      C2390   1.404       .  A
C2390      F2393   1.358       .  S
C2391      C2394   1.407       .  A
C2391      C2398   1.404       .  A
C2394      C2395   1.397       .  A
C2394      F2399   1.356       .  S
C2395      C2396   1.401       .  A
C2395      F2401   1.358       .  S
C2396      C2397   1.403       .  A
C2397      C2398   1.394       .  A
C2397      F2400   1.358       .  S
C2398      F2402   1.358       .  S
C2405      C2406   1.408       .  A
C2405      C2410   1.398       .  A
C2405      F2423   1.358       .  S
C2406      C2411   1.484       .  S
C2406      C2407   1.405       .  A
C2407      C2408   1.404       .  A
C2407      F2412   1.357       .  S
C2408      C2409   1.406       .  A
C2408      F2424   1.357       .  S
C2409      C2410   1.404       .  A
C2410      F2413   1.358       .  S
C2411      C2414   1.407       .  A
C2411      C2418   1.404       .  A
C2414      C2415   1.403       .  A
C2414      F2419   1.357       .  S
C2415      C2416   1.406       .  A
C2415      F2421   1.357       .  S
C2416      C2417   1.407       .  A
C2417      C2418   1.398       .  A
C2417      F2420   1.358       .  S
C2418      F2422   1.358       .  S
C2425      C2426   1.408       .  A
C2425      C2430   1.395       .  A
C2425      F2443   1.358       .  S
C2426      C2431   1.483       .  S
C2426      C2427   1.408       .  A
C2427      C2428   1.399       .  A
C2427      F2432   1.358       .  S
C2428      C2429   1.403       .  A
C2428      F2444   1.357       .  S
C2429      C2430   1.403       .  A
C2430      F2433   1.358       .  S
C2431      C2434   1.412       .  A
C2431      C2438   1.407       .  A
C2434      C2435   1.396       .  A
C2434      F2439   1.358       .  S
C2435      C2436   1.400       .  A
C2435      F2441   1.358       .  S
C2436      C2437   1.402       .  A
C2437      C2438   1.396       .  A
C2437      F2440   1.358       .  S
C2438      F2442   1.357       .  S
C2445      C2446   1.409       .  A
C2445      C2450   1.402       .  A
C2445      F2463   1.358       .  S
C2446      C2451   1.496       .  S
C2446      C2447   1.410       .  A
C2447      C2448   1.406       .  A
C2447      F2452   1.357       .  S
C2448      C2449   1.408       .  A
C2448      F2464   1.358       .  S
C2449      C2450   1.405       .  A
C2450      F2453   1.357       .  S
C2451      C2454   1.410       .  A
C2451      C2458   1.411       .  A
C2454      C2455   1.406       .  A
C2454      F2459   1.357       .  S
C2455      C2456   1.406       .  A
C2455      F2461   1.357       .  S
C2456      C2457   1.404       .  A
C2457      C2458   1.401       .  A
C2457      F2460   1.358       .  S
C2458      F2462   1.358       .  S
C2465      C2466   1.405       .  A
C2465      C2470   1.401       .  A
C2465      F2483   1.358       .  S
C2466      C2471   1.484       .  S
C2467      C2468   1.403       .  A
C2467      F2472   1.358   1_455  S
C2468      F2484   1.358   1_455  S
C2469      C2470   1.407       .  A
C2470      F2473   1.358       .  S
C2471      C2474   1.404       .  A
C2474      C2475   1.398       .  A
C2474      F2479   1.358       .  S
C2475      C2476   1.407       .  A
C2475      F2481   1.357       .  S
C2477      C2478   1.407       .  A
C2477      F2480   1.358       .  S
C2478      F2482   1.357       .  S
C2485      C2486   1.410       .  A
C2485      C2490   1.394       .  A
C2485      F2503   1.358       .  S
C2487      C2488   1.395       .  A
C2487      F2492   1.358       .  S
C2488      F2504   1.358   1_655  S
C2489      C2490   1.400       .  A
C2490      F2493   1.358       .  S
C2491      C2498   1.404       .  A
C2494      C2495   1.393       .  A
C2494      F2499   1.358       .  S
C2495      F2501   1.358       .  S
C2496      C2497   1.405       .  A
C2497      C2498   1.399       .  A
C2497      F2500   1.357       .  S
C2498      F2502   1.356       .  S
C2505      C2506   1.402       .  A
C2505      C2510   1.402       .  A
C2505      F2523   1.358       .  S
C2506      C2511   1.472       .  S
C2507      C2508   1.394       .  A
C2507      F2512   1.358       .  S
C2508      F2524   1.358       .  S
C2509      C2510   1.408       .  A
C2510      F2513   1.358       .  S
C2511      C2514   1.404       .  A
C2514      C2515   1.398       .  A
C2514      F2519   1.357       .  S
C2515      C2516   1.403       .  A
C2515      F2521   1.358       .  S
C2517      C2518   1.396       .  A
C2517      F2520   1.358       .  S
C2518      F2522   1.358       .  S
C2525      C2526   1.411       .  A
C2525      C2530   1.399       .  A
C2525      F2543   1.358       .  S
C2526      C2531   1.508       .  S
C2527      C2528   1.403       .  A
C2527      F2532   1.355       .  S
C2528      F2544   1.356   1_565  S
C2529      C2530   1.411       .  A
C2530      F2533   1.358       .  S
C2531      C2534   1.413       .  A
C2531      C2538   1.416       .  A
C2534      C2535   1.393       .  A
C2534      F2539   1.357       .  S
C2535      C2536   1.406       .  A
C2535      F2541   1.359       .  S
C2536      C2537   1.409       .  A
C2537      C2538   1.408       .  A
C2537      F2540   1.357       .  S
C2538      F2542   1.357       .  S
C2545      C2546   1.408       .  A
C2545      C2550   1.398       .  A
C2545      F2563   1.358       .  S
C2546      C2551   1.484       .  S
C2546      C2547   1.407       .  A
C2547      C2548   1.398       .  A
C2547      F2552   1.358       .  S
C2548      C2549   1.405       .  A
C2548      F2564   1.358   1_655  S
C2549      C2550   1.405       .  A
C2550      F2553   1.358       .  S
C2551      C2554   1.407       .  A
C2551      C2558   1.406       .  A
C2554      C2555   1.396       .  A
C2554      F2559   1.357       .  S
C2555      C2556   1.405       .  A
C2555      F2561   1.359       .  S
C2556      C2557   1.401       .  A
C2557      C2558   1.398       .  A
C2557      F2560   1.357       .  S
C2558      F2562   1.352       .  S
C2565      C2566   1.407       .  A
C2565      C2570   1.398       .  A
C2565      F2583   1.358       .  S
C2566      C2571   1.488       .  S
C2566      C2567   1.408       .  A
C2567      C2568   1.407       .  A
C2567      F2572   1.357       .  S
C2568      C2569   1.406       .  A
C2568      F2584   1.357       .  S
C2569      C2570   1.403       .  A
C2570      F2573   1.358       .  S
C2571      C2574   1.407       .  A
C2571      C2578   1.407       .  A
C2574      C2575   1.402       .  A
C2574      F2579   1.358       .  S
C2575      C2576   1.407       .  A
C2575      F2581   1.358       .  S
C2576      C2577   1.406       .  A
C2577      C2578   1.403       .  A
C2577      F2580   1.357       .  S
C2578      F2582   1.358       .  S
C2585      C2590   1.399       .  A
C2585      F2603   1.358       .  S
C2586      C2591   1.484       .  S
C2586      C2587   1.407       .  A
C2587      C2588   1.398       .  A
C2587      F2592   1.358       .  S
C2588      C2589   1.405       .  A
C2588      F2604   1.358       .  S
C2590      F2593   1.358       .  S
C2591      C2598   1.406       .  A
C2594      C2595   1.398       .  A
C2594      F2599   1.358       .  S
C2595      C2596   1.403       .  A
C2595      F2601   1.358       .  S
C2597      C2598   1.400       .  A
C2597      F2600   1.357       .  S
C2598      F2602   1.357       .  S
C2605      C2606   1.406       .  A
C2605      C2610   1.409       .  A
C2605      F2623   1.357       .  S
C2606      C2611   1.485       .  S
C2607      C2608   1.396       .  A
C2607      F2612   1.359   1_545  S
C2608      F2624   1.358   1_545  S
C2609      C2610   1.410       .  A
C2610      F2613   1.357       .  S
C2611      C2618   1.406       .  A
C2614      C2615   1.401       .  A
C2614      F2619   1.358       .  S
C2615      F2621   1.358       .  S
C2616      C2617   1.405       .  A
C2617      C2618   1.400       .  A
C2617      F2620   1.358       .  S
C2618      F2622   1.358       .  S
C2625      C2626   1.405       .  A
C2625      C2630   1.395       .  A
C2625      F2643   1.358       .  S
C2626      C2631   1.477       .  S
C2626      C2627   1.407       .  A
C2627      C2628   1.397       .  A
C2627      F2632   1.358       .  S
C2628      C2629   1.403       .  A
C2628      F2644   1.358       .  S
C2629      C2630   1.402       .  A
C2630      F2633   1.358       .  S
C2631      C2634   1.403       .  A
C2631      C2638   1.408       .  A
C2634      C2635   1.397       .  A
C2634      F2639   1.358       .  S
C2635      C2636   1.408       .  A
C2635      F2641   1.357   1_565  S
C2636      C2637   1.403       .  A
C2637      C2638   1.396       .  A
C2637      F2640   1.358       .  S
C2638      F2642   1.358       .  S
C2645      C2646   1.414       .  A
C2645      C2650   1.404       .  A
C2645      F2663   1.358       .  S
C2646      C2651   1.491       .  S
C2646      C2647   1.405       .  A
C2647      C2648   1.391       .  A
C2647      F2652   1.358       .  S
C2648      C2649   1.411       .  A
C2648      F2664   1.359       .  S
C2649      C2650   1.405       .  A
C2650      F2653   1.357       .  S
C2651      C2654   1.409       .  A
C2651      C2658   1.412       .  A
C2654      C2655   1.397       .  A
C2654      F2659   1.358       .  S
C2655      C2656   1.408       .  A
C2655      F2661   1.358       .  S
C2656      C2657   1.404       .  A
C2657      C2658   1.397       .  A
C2657      F2660   1.358       .  S
C2658      F2662   1.358       .  S
C2665      C2670   1.397       .  A
C2665      F2683   1.358       .  S
C2666      C2671   1.501       .  S
C2666      C2667   1.413       .  A
C2667      C2668   1.404       .  A
C2667      F2672   1.357       .  S
C2668      C2669   1.406       .  A
C2668      F2684   1.357       .  S
C2670      F2673   1.357       .  S
C2671      C2678   1.415       .  A
C2674      C2675   1.393       .  A
C2674      F2679   1.358       .  S
C2675      F2681   1.359       .  S
C2676      C2677   1.407       .  A
C2677      C2678   1.407       .  A
C2677      F2680   1.357       .  S
C2678      F2682   1.357       .  S
C2685      C2690   1.404       .  A
C2685      F2703   1.354       .  S
C2686      C2691   1.520       .  S
C2686      C2687   1.417       .  A
C2687      C2688   1.399       .  A
C2687      F2692   1.356       .  S
C2688      C2689   1.407       .  A
C2688      F2704   1.358       .  S
C2690      F2693   1.359       .  S
C2691      C2694   1.417       .  A
C2694      C2695   1.399       .  A
C2694      F2699   1.355       .  S
C2695      C2696   1.413       .  A
C2695      F2701   1.357       .  S
C2697      C2698   1.402       .  A
C2697      F2700   1.356       .  S
C2698      F2702   1.355       .  S
