geometry optimzed in LAMMPS
_audit_creation_date              2020-11-30 
_audit_creation_method            'lammps2cif' 
_symmetry_space_group_name_H-M    'P1' 
_symmetry_Int_Tables_number       1 
_symmetry_cell_setting            triclinic 
loop_ 
_symmetry_equiv_pos_as_xyz 
  x,y,z 
_cell_length_a                    32.45933137 
_cell_length_b                    32.495918118413265 
_cell_length_c                    83.00294757946058 
_cell_angle_alpha                 89.99366149061092 
_cell_angle_beta                  89.93076502078833 
_cell_angle_gamma                 89.9585382601917 
loop_ 
_atom_site_label 
_atom_site_type_symbol 
_atom_site_fract_x 
_atom_site_fract_y 
_atom_site_fract_z 
_atom_site_charge 
O1          O  0.78519268  0.69276827  0.23479343    -0.57600
C2          C  0.69851557  0.70681613  0.27439942     0.75000
O3          O  0.77820438  0.80456853  0.26752522    -0.58700
C4          C  0.80920151  0.71801860  0.22780127     0.75000
C5          C  0.69024485  0.78471537  0.22928336     0.77400
Cd6        Cd  0.74975319  0.74794982  0.25073658     1.37500
O7          O  0.71133379  0.68759859  0.26204212    -0.57600
O8          O  0.69022512  0.74712746  0.23314388    -0.56400
C9          C  0.80933377  0.78366962  0.27197421     0.77400
O10         O  0.71769853  0.80697901  0.23578550    -0.58800
O11         O  0.71080988  0.74353087  0.27596813    -0.57200
O12         O  0.80439613  0.75564101  0.23116246    -0.57200
O13         O  0.81192785  0.74713783  0.26675108    -0.56400
N14         N  0.90608891  0.08089517  0.64608629    -0.36400
N15         N  0.92980115  0.15221240  0.62662019    -0.56900
N16         N  0.86463054  0.13315588  0.60418219    -0.36400
N17         N  0.83773913  0.06488037  0.62466257    -0.56900
C18         C  0.93259115  0.09990189  0.65620974     0.27200
C19         C  0.88501185  0.05273115  0.65482970     0.27200
C20         C  0.87627895  0.17069551  0.59876095     0.27200
C21         C  0.82703088  0.12518800  0.59791021     0.27200
C22         C  0.96210164  0.15065985  0.63685012     0.35800
C23         C  0.94102791  0.17749212  0.61443423     0.35800
C24         C  0.83517338  0.03054153  0.63382233     0.35800
C25         C  0.81278475  0.05874402  0.61187081     0.35800
C26         C  0.92844720  0.08351157  0.67155572    -0.21700
C27         C  0.89844725  0.05369649  0.67067952    -0.21700
C28         C  0.84561210  0.18672203  0.58895572    -0.21700
C29         C  0.81471950  0.15787040  0.58831228    -0.21700
C30         C  0.99387933  0.17525053  0.63121218    -0.22700
C31         C  0.98066294  0.19198326  0.61694445    -0.22700
C32         C  0.80800560  0.00277318  0.62693680    -0.22700
C33         C  0.79364883  0.02072864  0.61307791    -0.22700
C34         C  0.96238054  0.12951715  0.65172116    -0.18100
C35         C  0.85549884  0.02477493  0.64871284    -0.18100
C36         C  0.80499613  0.08795905  0.59964143    -0.18100
C37         C  0.91480974  0.18976558  0.60169745    -0.18100
H38         H  0.94565565  0.09177688  0.68223658     0.14800
H39         H  0.88789865  0.03471780  0.68057438     0.14800
H40         H  0.84554361  0.21603962  0.58277221     0.14800
H41         H  0.78652043  0.16060031  0.58145289     0.14800
H42         H  0.02347638  0.18066282  0.63681747     0.13100
H43         H  0.99816565  0.21273721  0.60938803     0.13100
H44         H  0.79921159  0.97279512  0.63145114     0.13100
H45         H  0.77147039  0.00735979  0.60488305     0.13100
H46         H  0.90592449  0.08355866  0.63362389     0.26400
H47         H  0.88326026  0.11209645  0.61014334     0.26400
C48         C  0.49716761  0.98879694  0.49037978     0.03700
S49         S  0.51677965  0.94207266  0.48174065    -0.10300
C50         C  0.47240551  0.93546171  0.46920856    -0.01400
C51         C  0.44124912  0.96289998  0.47033706    -0.01400
S52         S  0.44801922  0.00672016  0.48324635    -0.10300
C53         C  0.54359839  0.06214039  0.52319891    -0.01400
C54         C  0.57214224  0.03194996  0.52318840    -0.01400
S55         S  0.56672082  0.99011323  0.50931616    -0.10300
C56         C  0.51851863  0.00937525  0.50177307     0.03700
S57         S  0.49997268  0.05698870  0.51009574    -0.10300
N58         N  0.08340513  0.91270324  0.35720500    -0.36400
N59         N  0.06145183  0.84373869  0.37784333    -0.56900
N60         N  0.12907633  0.86499460  0.39947687    -0.36400
N61         N  0.15345386  0.93134001  0.37787862    -0.56900
C62         C  0.05619194  0.89270499  0.34766908     0.27200
C63         C  0.10487815  0.93871108  0.34762922     0.27200
C64         C  0.11730744  0.82861235  0.40597274     0.27200
C65         C  0.16583227  0.87519001  0.40608116     0.27200
C66         C  0.02874021  0.84279717  0.36777760     0.35800
C67         C  0.05289786  0.81742316  0.39001165     0.35800
C68         C  0.15660024  0.96336937  0.36755500     0.35800
C69         C  0.18040397  0.93867191  0.38994071     0.35800
C70         C  0.06032897  0.90639027  0.33191253    -0.21700
C71         C  0.09091146  0.93548234  0.33190174    -0.21700
C72         C  0.14642319  0.81611598  0.41717869    -0.21700
C73         C  0.17687633  0.84546045  0.41728356    -0.21700
C74         C  0.99924803  0.81574724  0.37358701    -0.22700
C75         C  0.01468915  0.79943017  0.38759315    -0.22700
C76         C  0.18586523  0.99104754  0.37299502    -0.22700
C77         C  0.20112716  0.97532077  0.38710893    -0.22700
C78         C  0.02652248  0.86363518  0.35282934    -0.18100
C79         C  0.13565048  0.96654579  0.35270348    -0.18100
C80         C  0.18891350  0.91135077  0.40280504    -0.18100
C81         C  0.08023851  0.80714722  0.40265159    -0.18100
H82         H  0.04316221  0.89641863  0.32144977     0.14800
H83         H  0.10173640  0.95224903  0.32145449     0.14800
H84         H  0.14573176  0.78884982  0.42466153     0.14800
H85         H  0.20391638  0.84491195  0.42488532     0.14800
H86         H  0.96993920  0.80801040  0.36818186     0.13100
H87         H  0.99962043  0.77663723  0.39505518     0.13100
H88         H  0.19580555  0.01923455  0.36723804     0.13100
H89         H  0.22527277  0.98910781  0.39427014     0.13100
H90         H  0.08409419  0.91202366  0.36970968     0.26400
H91         H  0.11130168  0.88356023  0.39210140     0.26400
C92         C  0.00784571  0.50531591  0.49439708     0.03700
S93         S  0.98859992  0.55173944  0.48533194    -0.10300
C94         C  0.03420019  0.55862342  0.47341765    -0.01400
C95         C  0.06468640  0.53058641  0.47454946    -0.01400
S96         S  0.05719514  0.48700859  0.48750357    -0.10300
C97         C  0.96161222  0.43355613  0.52803646    -0.01400
C98         C  0.93032575  0.46070458  0.52633949    -0.01400
S99         S  0.93660881  0.50292279  0.51258827    -0.10300
C100        C  0.98628145  0.48520019  0.50591869     0.03700
S101        S  0.00622980  0.43970074  0.51540747    -0.10300
N102        N  0.62928348  0.35945463  0.60278168    -0.36400
N103        N  0.56500419  0.33477488  0.62485355    -0.56900
N104        N  0.58562396  0.40491167  0.64522132    -0.36400
N105        N  0.65278048  0.42684021  0.62404147    -0.56900
C106        C  0.62078211  0.32078468  0.59769428     0.27200
C107        C  0.66749033  0.36893689  0.59737686     0.27200
C108        C  0.56096338  0.38285181  0.65511126     0.27200
C109        C  0.60674794  0.43172650  0.65455573     0.27200
C110        C  0.55506968  0.31054174  0.61220614     0.35800
C111        C  0.53221757  0.33447401  0.63487965     0.35800
C112        C  0.67495173  0.43659870  0.61079011     0.35800
C113        C  0.65157779  0.46101368  0.63333593     0.35800
C114        C  0.65411137  0.30534383  0.58915977    -0.21700
C115        C  0.68364975  0.33565639  0.58901195    -0.21700
C116        C  0.56659415  0.39561298  0.67090101    -0.21700
C117        C  0.59559384  0.42637459  0.67055780    -0.21700
C118        C  0.51568039  0.29485159  0.61417535    -0.22700
C119        C  0.50126475  0.30987124  0.62861852    -0.22700
C120        C  0.68758471  0.47731547  0.61161321    -0.22700
C121        C  0.67296631  0.49270438  0.62595922    -0.22700
C122        C  0.58263100  0.30028590  0.59963393    -0.18100
C123        C  0.68659217  0.40799017  0.59874606    -0.18100
C124        C  0.63350497  0.46281367  0.64882487    -0.18100
C125        C  0.53128994  0.35376879  0.65011607    -0.18100
H126        H  0.65676313  0.27542045  0.58352445     0.14800
H127        H  0.71346635  0.33355883  0.58322250     0.14800
H128        H  0.55106866  0.38425927  0.68155808     0.14800
H129        H  0.60680067  0.44319617  0.68091439     0.14800
H130        H  0.49924625  0.27432966  0.60618422     0.13100
H131        H  0.47158533  0.30318057  0.63396530     0.13100
H132        H  0.70576634  0.49412947  0.60288898     0.13100
H133        H  0.67765365  0.52360079  0.63045883     0.13100
H134        H  0.60833232  0.37998104  0.60787529     0.26400
H135        H  0.58428727  0.40513360  0.63269905     0.26400
N136        N  0.36275949  0.63516818  0.39613853    -0.36400
N137        N  0.43543202  0.64954163  0.37593969    -0.56900
N138        N  0.40911527  0.58340577  0.35486990    -0.36400
N139        N  0.33962905  0.56577365  0.37603715    -0.56900
C140        C  0.38378796  0.66242037  0.40529153     0.27200
C141        C  0.33462607  0.61673455  0.40580154     0.27200
C142        C  0.44748429  0.59046461  0.34905768     0.27200
C143        C  0.39660362  0.54663155  0.34898731     0.27200
C144        C  0.43681003  0.68377072  0.38518118     0.35800
C145        C  0.46204887  0.65577914  0.36361266     0.35800
C146        C  0.30654832  0.56654631  0.38594139     0.35800
C147        C  0.32975715  0.54074909  0.36362092     0.35800
C148        C  0.36855191  0.66174654  0.42090914    -0.21700
C149        C  0.33770811  0.63276828  0.42125910    -0.21700
C150        C  0.45945185  0.55776357  0.33938595    -0.21700
C151        C  0.42729250  0.53028768  0.33924496    -0.21700
C152        C  0.46474362  0.71164338  0.37880997    -0.22700
C153        C  0.48067193  0.69394991  0.36514204    -0.22700
C154        C  0.27557376  0.54170640  0.37983366    -0.22700
C155        C  0.29029425  0.52532837  0.36569739    -0.22700
C156        C  0.41495416  0.68937591  0.39976603    -0.18100
C157        C  0.30493683  0.58729044  0.40091111    -0.18100
C158        C  0.35717201  0.52886723  0.35121316    -0.18100
C159        C  0.47089713  0.62679804  0.35134116    -0.18100
H160        H  0.37865561  0.68019698  0.43101775     0.14800
H161        H  0.31948993  0.62463682  0.43171499     0.14800
H162        H  0.48817971  0.55428267  0.33289197     0.14800
H163        H  0.42655679  0.50173184  0.33255207     0.14800
H164        H  0.47285435  0.74162059  0.38351649     0.13100
H165        H  0.50328158  0.70775205  0.35722587     0.13100
H166        H  0.24565509  0.53565463  0.38509095     0.13100
H167        H  0.27408002  0.50388860  0.35800746     0.13100
H168        H  0.36461144  0.63267568  0.38366223     0.26400
H169        H  0.39053895  0.60467132  0.36081708     0.26400
C170        C  0.99001095  0.00765455  0.99426957     0.03700
S171        S  0.94137232  0.98906350  0.98685257    -0.10300
C172        C  0.93566152  0.03139759  0.97316898    -0.01400
C173        C  0.96468648  0.06100030  0.97298252    -0.01400
S174        S  0.00908454  0.05487502  0.98565378    -0.10300
C175        C  0.06628652  0.96210659  0.02649672    -0.01400
C176        C  0.03562554  0.93410639  0.02743870    -0.01400
S177        S  0.99181785  0.94009433  0.01444413    -0.10300
C178        C  0.01118792  0.98702687  0.00577827     0.03700
S179        S  0.05997181  0.00520584  0.01314736    -0.10300
N180        N  0.63425434  0.13126069  0.89731233    -0.36400
N181        N  0.65672711  0.06495166  0.87531880    -0.56900
N182        N  0.58395053  0.08277898  0.85615830    -0.36400
N183        N  0.56432733  0.15224262  0.87708266    -0.56900
C184        C  0.67267552  0.12224811  0.90258909     0.27200
C185        C  0.62379323  0.16833440  0.90356122     0.27200
C186        C  0.60484527  0.05734071  0.84612415     0.27200
C187        C  0.55587955  0.10317597  0.84711469     0.27200
C188        C  0.68382626  0.05715661  0.88730238     0.35800
C189        C  0.65767547  0.03193668  0.86539940     0.35800
C190        C  0.55623797  0.17716174  0.88975334     0.35800
C191        C  0.52990728  0.15179280  0.86791278     0.35800
C192        C  0.68669827  0.15383000  0.91238359    -0.21700
C193        C  0.65600391  0.18300221  0.91291120    -0.21700
C194        C  0.58981921  0.06168503  0.83057612    -0.21700
C195        C  0.55888897  0.09049151  0.83121053    -0.21700
C196        C  0.70237696  0.01921465  0.88490463    -0.22700
C197        C  0.68563857  0.00313154  0.87108547    -0.22700
C198        C  0.51648709  0.19258366  0.88859075    -0.22700
C199        C  0.49989416  0.17665128  0.87472523    -0.22700
C200        C  0.69420328  0.08505838  0.89971857    -0.18100
C201        C  0.58510744  0.18815740  0.90179852    -0.18100
C202        C  0.52626924  0.13149365  0.85291792    -0.18100
C203        C  0.63576007  0.02886223  0.85070966    -0.18100
H204        H  0.71589505  0.15559856  0.91862527     0.14800
H205        H  0.65718651  0.21159595  0.91957698     0.14800
H206        H  0.60004742  0.04574280  0.81984484     0.14800
H207        H  0.54069481  0.10093020  0.82108138     0.14800
H208        H  0.72583723  0.00478725  0.89224512     0.13100
H209        H  0.69354304  0.97376988  0.86576427     0.13100
H210        H  0.50102954  0.21333559  0.89681081     0.13100
H211        H  0.46930028  0.18282768  0.87014828     0.13100
H212        H  0.61456154  0.11114413  0.89139971     0.26400
H213        H  0.58559279  0.08289141  0.86866887     0.26400
N214        N  0.86463546  0.36081425  0.89569972    -0.36400
N215        N  0.84565682  0.43380500  0.87644078    -0.56900
N216        N  0.91148832  0.41157193  0.85457249    -0.36400
N217        N  0.93363946  0.34151088  0.87492720    -0.56900
C218        C  0.83802260  0.38079445  0.90552740     0.27200
C219        C  0.88431372  0.33217960  0.90472397     0.27200
C220        C  0.90220946  0.44962370  0.84902879     0.27200
C221        C  0.94815775  0.40081418  0.84808684     0.27200
C222        C  0.81215765  0.43326939  0.88611390     0.35800
C223        C  0.83724103  0.46049343  0.86438278     0.35800
C224        C  0.93343160  0.30688704  0.88397065     0.35800
C225        C  0.95776019  0.33352847  0.86202389     0.35800
C226        C  0.84064632  0.36457844  0.92094332    -0.21700
C227        C  0.87000115  0.33408960  0.92046063    -0.21700
C228        C  0.93342034  0.46316210  0.83889669    -0.21700
C229        C  0.96233118  0.43227174  0.83824740    -0.21700
C230        C  0.78246826  0.46009310  0.88028728    -0.22700
C231        C  0.79835109  0.47730542  0.86648739    -0.22700
C232        C  0.95790397  0.27697990  0.87686168    -0.22700
C233        C  0.97345000  0.29392189  0.86298407    -0.22700
C234        C  0.80922857  0.41103737  0.90070111    -0.18100
C235        C  0.91290623  0.30268454  0.89892173    -0.18100
C236        C  0.96753619  0.36214070  0.84980332    -0.18100
C237        C  0.86499775  0.47114378  0.85192094    -0.18100
H238        H  0.82294710  0.37350004  0.93143712     0.14800
H239        H  0.87937507  0.31517066  0.93054311     0.14800
H240        H  0.93492550  0.49204117  0.83242440     0.14800
H241        H  0.99035153  0.43271304  0.83116535     0.14800
H242        H  0.75265019  0.46683604  0.88551190     0.13100
H243        H  0.78309477  0.49975663  0.85892825     0.13100
H244        H  0.96394859  0.24615293  0.88118785     0.13100
H245        H  0.99398193  0.27880440  0.85457044     0.13100
H246        H  0.86545023  0.36310290  0.88322416     0.26400
H247        H  0.89169196  0.39197600  0.86069270     0.26400
O248        O  0.19393017  0.28432261  0.23648276    -0.57600
C249        C  0.21830599  0.18524436  0.27256548     0.75000
O250        O  0.30505854  0.20425984  0.23691257    -0.58700
C251        C  0.21927204  0.30332571  0.22741962     0.75000
C252        C  0.27767559  0.30608659  0.27232977     0.77400
Cd253      Cd  0.24914099  0.24454419  0.25008923     1.37500
O254        O  0.19338496  0.20472444  0.26350805    -0.57600
O255        O  0.23996100  0.29805112  0.27005990    -0.56400
C256        C  0.28063926  0.18594120  0.22729226     0.77400
O257        O  0.30354511  0.28474743  0.26434626    -0.58800
O258        O  0.25616158  0.19383042  0.27106570    -0.57200
O259        O  0.25699136  0.29395002  0.22882408    -0.57200
O260        O  0.24289318  0.19560013  0.22822842    -0.56400
N261        N  0.42049362  0.91434697  0.14260735    -0.36400
N262        N  0.34844712  0.93276122  0.12275800    -0.56900
N263        N  0.37604480  0.87268016  0.09934519    -0.36400
N264        N  0.44566239  0.85122204  0.12015428    -0.56900
C265        C  0.39686206  0.93611983  0.15300028     0.27200
C266        C  0.44840717  0.89335081  0.15153046     0.27200
C267        C  0.33791454  0.88103853  0.09355324     0.27200
C268        C  0.38890843  0.83729971  0.09234466     0.27200
C269        C  0.34459142  0.96305246  0.13381018     0.35800
C270        C  0.32144392  0.94152423  0.11084554     0.35800
C271        C  0.47955482  0.85183615  0.12963018     0.35800
C272        C  0.45571438  0.82924469  0.10690118     0.35800
C273        C  0.40980211  0.92891286  0.16865089    -0.21700
C274        C  0.44210931  0.90170522  0.16774200    -0.21700
C275        C  0.32686584  0.85104180  0.08248653    -0.21700
C276        C  0.35870074  0.82324895  0.08188394    -0.21700
C277        C  0.31479425  0.99100015  0.12897026    -0.22700
C278        C  0.29989557  0.97718857  0.11448864    -0.22700
C279        C  0.51139279  0.83042490  0.12228832    -0.22700
C280        C  0.49621009  0.81591084  0.10793095    -0.22700
C281        C  0.36543694  0.96416351  0.14873552    -0.18100
C282        C  0.48070090  0.86853670  0.14537587    -0.18100
C283        C  0.42795339  0.81842805  0.09447850    -0.18100
C284        C  0.31370072  0.91602443  0.09739287    -0.18100
H285        H  0.39721296  0.94192195  0.17960709     0.14800
H286        H  0.45908165  0.88959580  0.17790629     0.14800
H287        H  0.29883615  0.84913327  0.07549926     0.14800
H288        H  0.35946753  0.79593005  0.07443895     0.14800
H289        H  0.30429920  0.01813362  0.13532477     0.13100
H290        H  0.27556353  0.99154222  0.10758178     0.13100
H291        H  0.54215190  0.82525374  0.12687646     0.13100
H292        H  0.51297481  0.79739000  0.09928925     0.13100
H293        H  0.42063617  0.91748902  0.13013298     0.26400
H294        H  0.39397486  0.89211304  0.10635587     0.26400
C295        C  0.50741477  0.49320055  0.99129522     0.03700
S296        S  0.55682883  0.50894694  0.98366148    -0.10300
C297        C  0.56238465  0.46337318  0.97169609    -0.01400
C298        C  0.53198986  0.43512680  0.97204521    -0.01400
S299        S  0.48684614  0.44552180  0.98382948    -0.10300
C300        C  0.43451838  0.54405814  0.02324473    -0.01400
C301        C  0.46472231  0.57224185  0.02270935    -0.01400
S302        S  0.50762403  0.56388616  0.00956338    -0.10300
C303        C  0.48684208  0.51614005  0.00224280     0.03700
S304        S  0.43782953  0.50014915  0.01025293    -0.10300
O305        O  0.21185694  0.29836948  0.76455053    -0.57600
C306        C  0.30994853  0.27393392  0.72942872     0.75000
O307        O  0.28418501  0.18492611  0.76464713    -0.58700
C308        C  0.18550742  0.27433499  0.77089663     0.75000
C309        C  0.19248501  0.21163847  0.72653715     0.77400
Cd310      Cd  0.24807812  0.24212752  0.75041527     1.37500
O311        O  0.28818482  0.29878619  0.73768062    -0.57600
O312        O  0.20098023  0.24949028  0.72804622    -0.56400
C313        C  0.30114078  0.20894810  0.77475744     0.77400
O314        O  0.21112195  0.18684962  0.73590752    -0.58800
O315        O  0.30260873  0.23595953  0.73118888    -0.57200
O316        O  0.18855427  0.23645166  0.76754817    -0.57200
O317        O  0.29260687  0.24680440  0.77350819    -0.56400
O318        O  0.68852288  0.71097860  0.73498452    -0.57600
C319        C  0.71332112  0.80809135  0.76987711     0.75000
O320        O  0.80637291  0.70580824  0.76156976    -0.58700
C321        C  0.70925147  0.67940425  0.73099440     0.75000
C322        C  0.77984222  0.79370006  0.72416046     0.77400
Cd323      Cd  0.74710920  0.74391473  0.74983608     1.37500
O324        O  0.69166286  0.77683734  0.76626555    -0.57600
O325        O  0.74216059  0.78451127  0.72555589    -0.56400
C326        C  0.78721923  0.69598945  0.77436770     0.77400
O327        O  0.80408222  0.77851346  0.73462119    -0.58800
O328        O  0.74917379  0.80954791  0.76389696    -0.57200
O329        O  0.74555549  0.67733375  0.73641542    -0.57200
O330        O  0.75103414  0.70994351  0.77592818    -0.56400
N331        N  0.13976569  0.63421741  0.10408650    -0.36400
N332        N  0.07210667  0.65620608  0.12529181    -0.56900
N333        N  0.09503746  0.58953531  0.14677209    -0.36400
N334        N  0.16527006  0.56987874  0.12637927    -0.56900
C335        C  0.12820176  0.67055262  0.09749742     0.27200
C336        C  0.17731205  0.62473068  0.09803838     0.27200
C337        C  0.06891871  0.61128088  0.15624210     0.27200
C338        C  0.11730288  0.56479089  0.15657040     0.27200
C339        C  0.06211351  0.67946461  0.11236638     0.35800
C340        C  0.03886108  0.65623253  0.13511367     0.35800
C341        C  0.19069042  0.56108266  0.11393741     0.35800
C342        C  0.16665678  0.53715642  0.13641636     0.35800
C343        C  0.15855344  0.68390051  0.08692856    -0.21700
C344        C  0.18953086  0.65507089  0.08730376    -0.21700
C345        C  0.07495377  0.60039610  0.17223331    -0.21700
C346        C  0.10530037  0.57086844  0.17242445    -0.21700
C347        C  0.02234714  0.69447671  0.11402009    -0.22700
C348        C  0.00745319  0.67936134  0.12832705    -0.22700
C349        C  0.20868835  0.52282472  0.11615303    -0.22700
C350        C  0.19324986  0.50752176  0.13036077    -0.22700
C351        C  0.08982214  0.69043560  0.09993170    -0.18100
C352        C  0.19960957  0.58813583  0.10108563    -0.18100
C353        C  0.14640973  0.53512187  0.15148306    -0.18100
C354        C  0.03801052  0.63863744  0.15070981    -0.18100
H355        H  0.15827805  0.71117433  0.07945776     0.14800
H356        H  0.21760667  0.65607138  0.08026471     0.14800
H357        H  0.05890120  0.61219144  0.18269460     0.14800
H358        H  0.11712929  0.55552518  0.18303224     0.14800
H359        H  0.00586961  0.71470690  0.10592659     0.13100
H360        H  0.97721544  0.68546196  0.13328198     0.13100
H361        H  0.23074647  0.50762139  0.10837820     0.13100
H362        H  0.20111827  0.47816704  0.13569434     0.13100
H363        H  0.12120796  0.61477790  0.11086270     0.26400
H364        H  0.09423951  0.58792709  0.13426076     0.26400
C365        C  0.30718366  0.58278346  0.08357677    -0.10600
C366        C  0.29992310  0.56463866  0.06842137     0.06500
C367        C  0.25940727  0.55294695  0.06446507    -0.09400
C368        C  0.22699086  0.55988746  0.07522933    -0.11000
C369        C  0.23448303  0.57817768  0.09021552    -0.00800
C370        C  0.27475655  0.58931496  0.09439498    -0.09900
C371        C  0.33430215  0.55831455  0.05674555     0.06600
H372        H  0.25270015  0.53824208  0.05306890     0.08500
H373        H  0.19595462  0.55127519  0.07184464     0.11900
H374        H  0.28085483  0.60394404  0.10587127     0.12200
H375        H  0.33775074  0.59287107  0.08694969     0.08500
C376        C  0.32778462  0.56280138  0.04004844    -0.10600
C377        C  0.36012972  0.55708010  0.02911567    -0.09900
C378        C  0.39965980  0.54742145  0.03467354    -0.00800
C379        C  0.40642417  0.54279973  0.05125035    -0.11000
C380        C  0.37405226  0.54796839  0.06218051    -0.09400
H381        H  0.29787098  0.57152118  0.03541840     0.08500
H382        H  0.35458733  0.56120652  0.01635160     0.12200
H383        H  0.43687039  0.53530887  0.05571051     0.11900
H384        H  0.38015668  0.54354273  0.07487921     0.08500
C385        C  0.48713969  0.64985394  0.05538497    -0.10600
C386        C  0.45763687  0.68043702  0.05214548     0.06500
C387        C  0.43145654  0.67580234  0.03879589    -0.09400
C388        C  0.43416753  0.64081605  0.02907776    -0.11000
C389        C  0.46339155  0.61022756  0.03245525    -0.00800
C390        C  0.49021639  0.61514187  0.04551097    -0.09900
C391        C  0.45304792  0.71632139  0.06298841     0.06600
H392        H  0.40816157  0.69869936  0.03615505     0.08500
H393        H  0.41317868  0.63729354  0.01903567     0.11900
H394        H  0.51281592  0.59164198  0.04826599     0.12200
H395        H  0.50778005  0.65285259  0.06555746     0.08500
C396        C  0.45139994  0.71064292  0.07975444    -0.10600
C397        C  0.44429335  0.74403464  0.08997987    -0.09900
C398        C  0.43917551  0.78373597  0.08363563    -0.00800
C399        C  0.44216659  0.78970559  0.06692183    -0.11000
C400        C  0.44872189  0.75620919  0.05666561    -0.09400
H401        H  0.45422624  0.68015077  0.08490671     0.08500
H402        H  0.44176491  0.73881181  0.10283231     0.12200
H403        H  0.43835873  0.82015721  0.06182668     0.11900
H404        H  0.45022271  0.76138781  0.04378877     0.08500
C405        C  0.37033711  0.05790368  0.17573239    -0.10600
C406        C  0.33114936  0.05768111  0.18295748     0.06500
C407        C  0.30353168  0.02578971  0.17910061    -0.09400
C408        C  0.31469631  0.99513270  0.16810353    -0.11000
C409        C  0.35356151  0.99597025  0.16072010    -0.00800
C410        C  0.38141703  0.02731461  0.16470985    -0.09900
C411        C  0.31879277  0.09105873  0.19420907     0.06600
H412        H  0.27335063  0.02448871  0.18464783     0.08500
H413        H  0.29301030  0.97088456  0.16526212     0.11900
H414        H  0.41157461  0.02830547  0.15912078     0.12200
H415        H  0.39209494  0.08223657  0.17834745     0.08500
C416        C  0.34628145  0.10589277  0.20594716    -0.10600
C417        C  0.33432625  0.13725788  0.21655910    -0.09900
C418        C  0.29464276  0.15433342  0.21564209    -0.00800
C419        C  0.26739066  0.13979388  0.20377913    -0.11000
C420        C  0.27932511  0.10857591  0.19318877    -0.09400
H421        H  0.37680467  0.09275559  0.20709137     0.08500
H422        H  0.35586363  0.14766527  0.22563687     0.12200
H423        H  0.23664687  0.15246668  0.20270613     0.11900
H424        H  0.25771812  0.09831453  0.18410684     0.08500
C425        C  0.13535374  0.44031852  0.17774203    -0.10600
C426        C  0.17531766  0.43586812  0.18404448     0.06500
C427        C  0.20564237  0.46479840  0.17965259    -0.09400
C428        C  0.19636198  0.49696673  0.16907755    -0.11000
C429        C  0.15658237  0.50094955  0.16271009    -0.00800
C430        C  0.12608580  0.47260305  0.16721422    -0.09900
C431        C  0.18560736  0.40092610  0.19493803     0.06600
H432        H  0.23650297  0.46287364  0.18452390     0.08500
H433        H  0.22013425  0.51889731  0.16589611     0.11900
H434        H  0.09517434  0.47529746  0.16242386     0.12200
H435        H  0.11140991  0.41839111  0.18068129     0.08500
C436        C  0.15709603  0.38640665  0.20642358    -0.10600
C437        C  0.16737755  0.35387260  0.21675530    -0.09900
C438        C  0.20647014  0.33552025  0.21588463    -0.00800
C439        C  0.23467815  0.34964753  0.20429304    -0.11000
C440        C  0.22432624  0.38174747  0.19390718    -0.09400
H441        H  0.12715769  0.40075360  0.20767588     0.08500
H442        H  0.14517822  0.34378783  0.22566710     0.12200
H443        H  0.26498297  0.33591733  0.20325813     0.11900
H444        H  0.24668829  0.39136705  0.18498550     0.08500
C445        C  0.84574575  0.60776969  0.79325881    -0.10600
C446        C  0.82915420  0.60708861  0.80893152     0.06500
C447        C  0.80168258  0.63840042  0.81353369    -0.09400
C448        C  0.78938831  0.66839406  0.80244815    -0.11000
C449        C  0.80483649  0.66811693  0.78662423    -0.00800
C450        C  0.83391245  0.63816482  0.78224495    -0.09900
C451        C  0.83854692  0.57254128  0.82008953     0.06600
H452        H  0.78818080  0.63858255  0.82546983     0.08500
H453        H  0.76687662  0.69117231  0.80611782     0.11900
H454        H  0.84608701  0.63713539  0.77009674     0.12200
H455        H  0.86741662  0.58436229  0.78943927     0.08500
C456        C  0.83918700  0.53185600  0.81432482    -0.10600
C457        C  0.84717428  0.49906171  0.82474115    -0.09900
C458        C  0.85473270  0.50621983  0.84113170    -0.00800
C459        C  0.85393539  0.54671569  0.84700147    -0.11000
C460        C  0.84580335  0.57962485  0.83657353    -0.09400
H461        H  0.83296088  0.52532305  0.80177009     0.08500
H462        H  0.84761974  0.46798646  0.82002169     0.12200
H463        H  0.86000183  0.55279203  0.85960673     0.11900
H464        H  0.84571339  0.61063567  0.84134458     0.08500
C465        C  0.07143653  0.34467723  0.83036702    -0.10600
C466        C  0.06000603  0.32777182  0.81544470     0.06500
C467        C  0.01801783  0.32271048  0.81186374    -0.09400
C468        C  0.98798632  0.33436200  0.82301294    -0.11000
C469        C  0.99954934  0.35078075  0.83793743    -0.00800
C470        C  0.04135417  0.35592414  0.84158730    -0.09900
C471        C  0.09178068  0.31474871  0.80374283     0.06600
H472        H  0.00848733  0.31003234  0.80039202     0.08500
H473        H  0.95572914  0.33031805  0.82008636     0.11900
H474        H  0.05056206  0.36852830  0.85311150     0.12200
H475        H  0.10362642  0.34848083  0.83343928     0.08500
C476        C  0.12517650  0.34058654  0.80005433    -0.10600
C477        C  0.15534345  0.32795096  0.78907543    -0.09900
C478        C  0.15285986  0.28903253  0.78182438    -0.00800
C479        C  0.11939754  0.26326451  0.78551278    -0.11000
C480        C  0.08901716  0.27610586  0.79628984    -0.09400
H481        H  0.12773903  0.37065522  0.80558676     0.08500
H482        H  0.18092182  0.34827858  0.78647141     0.12200
H483        H  0.11673190  0.23307125  0.78008629     0.11900
H484        H  0.06374377  0.25551249  0.79904575     0.08500
C485        C  0.74293008  0.45872871  0.93337304    -0.10600
C486        C  0.70666493  0.43525998  0.93213235     0.06500
C487        C  0.70495537  0.40330380  0.92071221    -0.09400
C488        C  0.73835954  0.39552671  0.91054355    -0.11000
C489        C  0.77401518  0.41958678  0.91157403    -0.00800
C490        C  0.77631431  0.45104311  0.92310186    -0.09900
C491        C  0.67011095  0.44462504  0.94227827     0.06600
H492        H  0.67773843  0.38423685  0.91966845     0.08500
H493        H  0.73639590  0.37085066  0.90180563     0.11900
H494        H  0.80387020  0.46964447  0.92407810     0.12200
H495        H  0.74505853  0.48365223  0.94198735     0.08500
C496        C  0.67415117  0.45374529  0.95877478    -0.10600
C497        C  0.63915485  0.46082215  0.96828604    -0.09900
C498        C  0.59967187  0.45875025  0.96146600    -0.00800
C499        C  0.59576856  0.45137695  0.94488407    -0.11000
C500        C  0.63055342  0.44413945  0.93542041    -0.09400
H501        H  0.70423518  0.45430741  0.96439230     0.08500
H502        H  0.64280799  0.46672064  0.98104659     0.12200
H503        H  0.56566061  0.45077936  0.93928543     0.11900
H504        H  0.62650198  0.43826877  0.92267900     0.08500
C505        C  0.37359012  0.21085737  0.81029797    -0.10600
C506        C  0.39148915  0.17151050  0.80975814     0.06500
C507        C  0.37715423  0.14321191  0.79818662    -0.09400
C508        C  0.34671475  0.15465534  0.78705888    -0.11000
C509        C  0.33023303  0.19462313  0.78727357    -0.00800
C510        C  0.34354399  0.22229855  0.79917704    -0.09900
C511        C  0.42579849  0.16093129  0.82093561     0.06600
H512        H  0.39042652  0.11271311  0.79737210     0.08500
H513        H  0.33705198  0.13272625  0.77799871     0.11900
H514        H  0.33110664  0.25319871  0.79978604     0.12200
H515        H  0.38300799  0.23306247  0.81929029     0.08500
C516        C  0.45561891  0.19069526  0.82494261    -0.10600
C517        C  0.48773053  0.18130278  0.83551709    -0.09900
C518        C  0.49091883  0.14190635  0.84225952    -0.00800
C519        C  0.46151036  0.11195251  0.83824662    -0.11000
C520        C  0.42919342  0.12137138  0.82770092    -0.09400
H521        H  0.45456041  0.22117408  0.81969359     0.08500
H522        H  0.51050279  0.20459825  0.83828152     0.12200
H523        H  0.46367542  0.08128190  0.84328529     0.11900
H524        H  0.40662929  0.09785635  0.82500013     0.08500
C525        C  0.51385664  0.35115728  0.94130328    -0.10600
C526        C  0.54653466  0.32398178  0.94459731     0.06500
C527        C  0.57232537  0.33201736  0.95780680    -0.09400
C528        C  0.56674992  0.36752616  0.96706401    -0.11000
C529        C  0.53502209  0.39534006  0.96338390    -0.00800
C530        C  0.50790625  0.38637078  0.95073445    -0.09900
C531        C  0.55530227  0.28879368  0.93372730     0.06600
H532        H  0.59785992  0.31173348  0.96054595     0.08500
H533        H  0.58787647  0.37395919  0.97683521     0.11900
H534        H  0.48326067  0.40750908  0.94774264     0.12200
H535        H  0.49334227  0.34543789  0.93127106     0.08500
C536        C  0.56396527  0.24951569  0.93996506    -0.10600
C537        C  0.57335222  0.21680089  0.92961039    -0.09900
C538        C  0.57486085  0.22292389  0.91285751    -0.00800
C539        C  0.56667530  0.26229067  0.90665472    -0.11000
C540        C  0.55662974  0.29479317  0.91697016    -0.09400
H541        H  0.56312628  0.24409475  0.95283560     0.08500
H542        H  0.57952394  0.18667220  0.93464534     0.12200
H543        H  0.56810152  0.26780588  0.89379689     0.11900
H544        H  0.55077919  0.32491678  0.91187497     0.08500
C545        C  0.69644360  0.96166799  0.82164005    -0.10600
C546        C  0.66611820  0.93414232  0.81599980     0.06500
C547        C  0.62594577  0.93758440  0.82231496    -0.09400
C548        C  0.61645186  0.96759706  0.83383339    -0.11000
C549        C  0.64664115  0.99536719  0.83914550    -0.00800
C550        C  0.68668678  0.99216622  0.83290933    -0.09900
C551        C  0.67641290  0.90228344  0.80358042     0.06600
H552        H  0.60146756  0.91769091  0.81815219     0.08500
H553        H  0.58526471  0.96967732  0.83842196     0.11900
H554        H  0.71042422  0.01339776  0.83676121     0.12200
H555        H  0.72795920  0.95961499  0.81746618     0.08500
C556        C  0.70725647  0.90973368  0.79199601    -0.10600
C557        C  0.71849523  0.87937749  0.78090500    -0.09900
C558        C  0.69861277  0.84102000  0.78080010    -0.00800
C559        C  0.66673427  0.83384880  0.79187869    -0.11000
C560        C  0.65601952  0.86395586  0.80324275    -0.09400
H561        H  0.72287843  0.93909473  0.79142024     0.08500
H562        H  0.74296502  0.88592714  0.77239963     0.12200
H563        H  0.65114239  0.80440373  0.79215636     0.11900
H564        H  0.63256022  0.85657135  0.81204469     0.08500
C565        C  0.97040595  0.22517342  0.92489608    -0.10600
C566        C  0.93842388  0.19894709  0.92992687     0.06500
C567        C  0.89830972  0.20622553  0.92416161    -0.09400
C568        C  0.89027387  0.23935723  0.91387100    -0.11000
C569        C  0.92207631  0.26610571  0.90919678    -0.00800
C570        C  0.96226431  0.25854324  0.91471237    -0.09900
C571        C  0.94656127  0.16479173  0.94146253     0.06600
H572        H  0.87312029  0.18619607  0.92758149     0.08500
H573        H  0.85910498  0.24444931  0.90966463     0.11900
H574        H  0.98720726  0.27892295  0.91133201     0.12200
H575        H  0.00152558  0.22063404  0.92922863     0.08500
C576        C  0.98217346  0.14024172  0.94010511    -0.10600
C577        C  0.98901601  0.10749955  0.95077644    -0.09900
C578        C  0.96033876  0.09867123  0.96293636    -0.00800
C579        C  0.92558387  0.12405950  0.96468182    -0.11000
C580        C  0.91863510  0.15657967  0.95401670    -0.09400
H581        H  0.00416794  0.14565446  0.93052221     0.08500
H582        H  0.01589199  0.08815055  0.94918247     0.12200
H583        H  0.90330974  0.11807040  0.97411962     0.11900
H584        H  0.89139778  0.17540098  0.95562364     0.08500
C585        C  0.82629017  0.04488723  0.95844310    -0.10600
C586        C  0.83182419  0.04655352  0.94161421     0.06500
C587        C  0.87149556  0.03975720  0.93529518    -0.09400
C588        C  0.90493192  0.03295736  0.94554479    -0.11000
C589        C  0.89942204  0.03271347  0.96231510    -0.00800
C590        C  0.85977021  0.03776457  0.96868542    -0.09900
C591        C  0.79659914  0.05611262  0.93072762     0.06600
H592        H  0.87678755  0.03995398  0.92241671     0.08500
H593        H  0.93538535  0.02895724  0.94042421     0.11900
H594        H  0.85506261  0.03808082  0.98160565     0.12200
H595        H  0.79632598  0.05045918  0.96374905     0.08500
C596        C  0.75689205  0.04094689  0.93407837    -0.10600
C597        C  0.72375144  0.05039081  0.92397679    -0.09900
C598        C  0.72966359  0.07495587  0.91029530    -0.00800
C599        C  0.76911699  0.09003299  0.90680149    -0.11000
C600        C  0.80226997  0.08085543  0.91695533    -0.09400
H601        H  0.75147764  0.02136972  0.94441664     0.08500
H602        H  0.69343998  0.03844093  0.92678494     0.12200
H603        H  0.77407616  0.10922365  0.89630801     0.11900
H604        H  0.83219894  0.09370396  0.91415557     0.08500
C605        C  0.24477344  0.96663575  0.06623243    -0.10600
C606        C  0.20966850  0.94148304  0.06687447     0.06500
C607        C  0.20831559  0.90885618  0.07796222    -0.09400
C608        C  0.24170989  0.90123162  0.08815049    -0.11000
C609        C  0.27737729  0.92546497  0.08712378    -0.00800
C610        C  0.27859140  0.95840604  0.07618223    -0.09900
C611        C  0.17492377  0.94815282  0.05567684     0.06600
H612        H  0.18136925  0.88928650  0.07870613     0.08500
H613        H  0.24015356  0.87591477  0.09661857     0.11900
H614        H  0.30583557  0.97750103  0.07530226     0.12200
H615        H  0.24639936  0.99188406  0.05773677     0.08500
C616        C  0.15422743  0.98609348  0.05511017    -0.10600
C617        C  0.11954537  0.99103403  0.04525613    -0.09900
C618        C  0.10537410  0.95823134  0.03574852    -0.00800
C619        C  0.12775698  0.92117442  0.03561176    -0.11000
C620        C  0.16173280  0.91594614  0.04569741    -0.09400
H621        H  0.16409112  0.01136753  0.06268213     0.08500
H622        H  0.10299576  0.01997801  0.04545472     0.12200
H623        H  0.11820865  0.89583656  0.02801665     0.11900
H624        H  0.17770681  0.88666637  0.04576669     0.08500
C625        C  0.05065408  0.87033242  0.06529331    -0.10600
C626        C  0.04954888  0.82995577  0.05915323     0.06500
C627        C  0.04008489  0.82434177  0.04274051    -0.09400
C628        C  0.03356292  0.85821387  0.03263310    -0.11000
C629        C  0.03686238  0.89837609  0.03865472    -0.00800
C630        C  0.04425604  0.90412217  0.05517141    -0.09900
C631        C  0.05941156  0.79407236  0.06970188     0.06600
H632        H  0.03931617  0.79383856  0.03752021     0.08500
H633        H  0.02791071  0.85308607  0.01993466     0.11900
H634        H  0.04620187  0.93487999  0.06013787     0.12200
H635        H  0.05669921  0.87591781  0.07792611     0.08500
C636        C  0.08952865  0.79746271  0.08183689    -0.10600
C637        C  0.09898998  0.76391733  0.09170345    -0.09900
C638        C  0.07917644  0.72603152  0.08947668    -0.00800
C639        C  0.04943767  0.72221762  0.07733422    -0.11000
C640        C  0.03941179  0.75597424  0.06761603    -0.09400
H641        H  0.10628529  0.82589551  0.08359266     0.08500
H642        H  0.12216099  0.76731035  0.10099038     0.12200
H643        H  0.03379108  0.69317261  0.07548917     0.11900
H644        H  0.01569498  0.75228916  0.05857936     0.08500
C645        C  0.27074641  0.39619399  0.30118390    -0.10600
C646        C  0.31186339  0.40113369  0.30599646     0.06500
C647        C  0.34206910  0.37485899  0.29949792    -0.09400
C648        C  0.33129918  0.34423482  0.28836841    -0.11000
C649        C  0.29002332  0.33893663  0.28374632    -0.00800
C650        C  0.25991556  0.36531414  0.29027320    -0.09900
C651        C  0.32300892  0.43364830  0.31776791     0.06600
H652        H  0.37406236  0.37830642  0.30292549     0.08500
H653        H  0.35514139  0.32445006  0.28352576     0.11900
H654        H  0.22783380  0.36214156  0.28692905     0.12200
H655        H  0.24684697  0.41586076  0.30607149     0.08500
C656        C  0.30846133  0.47410070  0.31577464    -0.10600
C657        C  0.31926860  0.50488911  0.32675678    -0.09900
C658        C  0.34434051  0.49563615  0.34001372    -0.00800
C659        C  0.35825535  0.45515282  0.34224244    -0.11000
C660        C  0.34793970  0.42444552  0.33113198    -0.09400
H661        H  0.28933595  0.48201725  0.30554918     0.08500
H662        H  0.30837883  0.53603261  0.32487009     0.12200
H663        H  0.37761567  0.44757807  0.35244034     0.11900
H664        H  0.35914880  0.39342670  0.33302847     0.08500
C665        C  0.43879727  0.36131406  0.67776073    -0.10600
C666        C  0.43829169  0.32203951  0.68486900     0.06500
C667        C  0.46861607  0.29323517  0.68032528    -0.09400
C668        C  0.49831088  0.30327033  0.66879734    -0.11000
C669        C  0.49848544  0.34236934  0.66171094    -0.00800
C670        C  0.46873522  0.37140764  0.66631368    -0.09900
C671        C  0.40545077  0.31047901  0.69650458     0.06600
H672        H  0.46962727  0.26299011  0.68578049     0.08500
H673        H  0.52151912  0.28077610  0.66554509     0.11900
H674        H  0.46872773  0.40184913  0.66099670     0.12200
H675        H  0.41562261  0.38398851  0.68081416     0.08500
C676        C  0.39011120  0.33883232  0.70788094    -0.10600
C677        C  0.35861680  0.32747378  0.71856626    -0.09900
C678        C  0.34231600  0.28749095  0.71812599    -0.00800
C679        C  0.35768704  0.25933611  0.70678571    -0.11000
C680        C  0.38862942  0.27072235  0.69606728    -0.09400
H681        H  0.40272622  0.36960143  0.70863492     0.08500
H682        H  0.34744351  0.34966502  0.72727230     0.12200
H683        H  0.34546570  0.22838421  0.70606453     0.11900
H684        H  0.39892157  0.24842671  0.68724421     0.08500
C685        C  0.65066481  0.62639582  0.69734159    -0.10600
C686        C  0.67147989  0.58840982  0.69632614     0.06500
C687        C  0.70216629  0.57961967  0.70776660    -0.09400
C688        C  0.71312332  0.60866204  0.71940169    -0.11000
C689        C  0.69336263  0.64709809  0.72005926    -0.00800
C690        C  0.66140373  0.65539179  0.70913720    -0.09900
C691        C  0.66191471  0.55817367  0.68332212     0.06600
H692        H  0.71807674  0.55032731  0.70765105     0.08500
H693        H  0.73770131  0.60128844  0.72773540     0.11900
H694        H  0.64592300  0.68492261  0.70927831     0.12200
H695        H  0.62703316  0.63431110  0.68868570     0.08500
C696        C  0.62114755  0.55177064  0.67817714    -0.10600
C697        C  0.61218766  0.52192557  0.66653649    -0.09900
C698        C  0.64371067  0.49766135  0.65983620    -0.00800
C699        C  0.68454870  0.50476228  0.66458969    -0.11000
C700        C  0.69357518  0.53477339  0.67614785    -0.09400
H701        H  0.59598336  0.56894117  0.68349273     0.08500
H702        H  0.58043790  0.51691302  0.66305167     0.12200
H703        H  0.70934324  0.48636759  0.65962787     0.11900
H704        H  0.72541505  0.53945612  0.67954855     0.08500
C705        C  0.84276872  0.48150307  0.55540633    -0.10600
C706        C  0.82049754  0.44447744  0.55461342     0.06500
C707        C  0.83255265  0.41428157  0.54345666    -0.09400
C708        C  0.86727281  0.42025902  0.53375741    -0.11000
C709        C  0.89051528  0.45656056  0.53503552    -0.00800
C710        C  0.87726150  0.48768040  0.54555304    -0.09900
C711        C  0.78580031  0.43654956  0.56581330     0.06600
H712        H  0.81594467  0.38546104  0.54265423     0.08500
H713        H  0.87686254  0.39600821  0.52562157     0.11900
H714        H  0.89472401  0.51591954  0.54667663     0.12200
H715        H  0.83377702  0.50536850  0.56381470     0.08500
C716        C  0.79091792  0.44206120  0.58247402    -0.10600
C717        C  0.75893220  0.43259367  0.59315686    -0.09900
C718        C  0.72075571  0.41855635  0.58736554    -0.00800
C719        C  0.71551414  0.41370010  0.57065051    -0.11000
C720        C  0.74788328  0.42206995  0.56000427    -0.09400
H721        H  0.82009254  0.45262181  0.58725038     0.08500
H722        H  0.76407834  0.43593552  0.60597888     0.12200
H723        H  0.68637509  0.40309527  0.56585557     0.11900
H724        H  0.74320959  0.41764303  0.54720352     0.08500
C725        C  0.15188628  0.51135748  0.44507871    -0.10600
C726        C  0.17376629  0.54868021  0.44595260     0.06500
C727        C  0.16196475  0.57795791  0.45753933    -0.09400
C728        C  0.12778953  0.57110996  0.46739749    -0.11000
C729        C  0.10433733  0.53507988  0.46575476    -0.00800
C730        C  0.11744572  0.50461753  0.45492801    -0.09900
C731        C  0.20742049  0.55814949  0.43435731     0.06600
H732        H  0.17881980  0.60651694  0.45880678     0.08500
H733        H  0.11883000  0.59455623  0.47598755     0.11900
H734        H  0.09990675  0.47649784  0.45355729     0.12200
H735        H  0.16021455  0.48820706  0.43627637     0.08500
C736        C  0.23645090  0.52805261  0.42992116    -0.10600
C737        C  0.26799788  0.53744900  0.41900622    -0.09900
C738        C  0.27093727  0.57699128  0.41227226    -0.00800
C739        C  0.24179653  0.60693689  0.41654748    -0.11000
C740        C  0.21037393  0.59763372  0.42747460    -0.09400
H741        H  0.23513833  0.49747717  0.43508042     0.08500
H742        H  0.29035193  0.51400130  0.41588160     0.12200
H743        H  0.24345378  0.63753191  0.41140730     0.11900
H744        H  0.18802458  0.62125109  0.43039469     0.08500
C745        C  0.15167531  0.11089169  0.29644426    -0.10600
C746        C  0.18093962  0.09278292  0.30677003     0.06500
C747        C  0.22207370  0.10592429  0.30582931    -0.09400
C748        C  0.23384030  0.13594398  0.29474747    -0.11000
C749        C  0.20476516  0.15388486  0.28436098    -0.00800
C750        C  0.16348680  0.14120830  0.28534510    -0.09900
C751        C  0.16902658  0.06030255  0.31850891     0.06600
H752        H  0.24523719  0.09330263  0.31380381     0.08500
H753        H  0.26587234  0.14520416  0.29436822     0.11900
H754        H  0.14046027  0.15442164  0.27745465     0.12200
H755        H  0.11979526  0.10115404  0.29675808     0.08500
C756        C  0.13158756  0.06275885  0.32701059    -0.10600
C757        C  0.12105662  0.03257862  0.33829690    -0.09900
C758        C  0.14782065  0.99958689  0.34132386    -0.00800
C759        C  0.18506680  0.99684712  0.33285939    -0.11000
C760        C  0.19554379  0.02685497  0.32152758    -0.09400
H761        H  0.11071700  0.08829726  0.32511121     0.08500
H762        H  0.09201386  0.03485224  0.34467630     0.12200
H763        H  0.20571242  0.97116953  0.33489537     0.11900
H764        H  0.22422582  0.02358913  0.31498035     0.08500
C765        C  0.04379023  0.66893512  0.45939966    -0.10600
C766        C  0.04821890  0.66430743  0.44261453     0.06500
C767        C  0.04622802  0.62443257  0.43601387    -0.09400
C768        C  0.04076928  0.59013356  0.44596418    -0.11000
C769        C  0.03688858  0.59500974  0.46268987    -0.00800
C770        C  0.03781917  0.63463606  0.46930742    -0.09900
C771        C  0.05545482  0.70080954  0.43209816     0.06600
H772        H  0.04876198  0.61968286  0.42314411     0.08500
H773        H  0.03996854  0.55969942  0.44065158     0.11900
H774        H  0.03528611  0.63887910  0.48221384     0.12200
H775        H  0.04587946  0.69898942  0.46495517     0.08500
C776        C  0.03653285  0.73887087  0.43551184    -0.10600
C777        C  0.04422548  0.77335269  0.42587072    -0.09900
C778        C  0.07066139  0.77034355  0.41257096    -0.00800
C779        C  0.08918531  0.73248107  0.40895574    -0.11000
C780        C  0.08183792  0.69808510  0.41865662    -0.09400
H781        H  0.01553486  0.74199288  0.44557735     0.08500
H782        H  0.02968078  0.80242424  0.42878559     0.12200
H783        H  0.10991764  0.72982588  0.39877203     0.11900
H784        H  0.09755099  0.66960107  0.41581181     0.08500
C785        C  0.25925453  0.96143223  0.43351514    -0.10600
C786        C  0.29517851  0.93774258  0.43188745     0.06500
C787        C  0.29614956  0.90551006  0.42061669    -0.09400
C788        C  0.26167689  0.89711500  0.41110465    -0.11000
C789        C  0.22545943  0.92022563  0.41298631    -0.00800
C790        C  0.22444735  0.95242242  0.42425182    -0.09900
C791        C  0.33102825  0.94531577  0.44240943     0.06600
H792        H  0.32365701  0.88696167  0.41916848     0.08500
H793        H  0.26303174  0.87239458  0.40236564     0.11900
H794        H  0.19676415  0.97064491  0.42577280     0.12200
H795        H  0.25787663  0.98622745  0.44221789     0.08500
C796        C  0.34967540  0.98426787  0.44313409    -0.10600
C797        C  0.38485491  0.99038864  0.45260421    -0.09900
C798        C  0.40147025  0.95778474  0.46161490    -0.00800
C799        C  0.38088626  0.91970367  0.46170340    -0.11000
C800        C  0.34667106  0.91324265  0.45188639    -0.09400
H801        H  0.33776946  0.00950326  0.43599361     0.08500
H802        H  0.39984657  0.02014534  0.45247885     0.12200
H803        H  0.39201449  0.89451425  0.46904368     0.11900
H804        H  0.33217646  0.88322565  0.45176018     0.08500
C805        C  0.46872174  0.82533306  0.45476980    -0.10600
C806        C  0.45752815  0.83040777  0.43855728     0.06500
C807        C  0.45516202  0.87022659  0.43206533    -0.09400
C808        C  0.46250348  0.90450076  0.44179048    -0.11000
C809        C  0.47123057  0.89945486  0.45825023    -0.00800
C810        C  0.47548293  0.85964654  0.46455661    -0.09900
C811        C  0.44680698  0.79429161  0.42861774     0.06600
H812        H  0.44706588  0.87475914  0.41953390     0.08500
H813        H  0.45965218  0.93502076  0.43666228     0.11900
H814        H  0.48216740  0.85515622  0.47721621     0.12200
H815        H  0.47064512  0.79485808  0.46000173     0.08500
C816        C  0.47357446  0.76041171  0.42769593    -0.10600
C817        C  0.46320431  0.72620343  0.41833946    -0.09900
C818        C  0.42570615  0.72524149  0.40996748    -0.00800
C819        C  0.39865482  0.75879243  0.41105627    -0.11000
C820        C  0.40925059  0.79322854  0.42023340    -0.09400
H821        H  0.50267367  0.76068150  0.43406659     0.08500
H822        H  0.48435071  0.70047700  0.41759212     0.12200
H823        H  0.36958014  0.75839933  0.40466683     0.11900
H824        H  0.38796537  0.81886504  0.42094625     0.08500
C825        C  0.58674796  0.15650225  0.54435205    -0.10600
C826        C  0.55433134  0.16677923  0.55480224     0.06500
C827        C  0.51774528  0.14382743  0.55428982    -0.09400
C828        C  0.51387362  0.11061313  0.54364927    -0.11000
C829        C  0.54679571  0.09938262  0.53358756    -0.00800
C830        C  0.58298418  0.12318418  0.53380275    -0.09900
C831        C  0.55902240  0.20119297  0.56630695     0.06600
H832        H  0.49229082  0.15154570  0.56217987     0.08500
H833        H  0.48562930  0.09289891  0.54362139     0.11900
H834        H  0.60846216  0.11577405  0.52588675     0.12200
H835        H  0.61517064  0.17394685  0.54453017     0.08500
C836        C  0.55709440  0.19408335  0.58297854    -0.10600
C837        C  0.56410740  0.22626818  0.59386602    -0.09900
C838        C  0.57235125  0.26623738  0.58823700    -0.00800
C839        C  0.57313222  0.27339176  0.57153104    -0.11000
C840        C  0.56693575  0.24109859  0.56067046    -0.09400
H841        H  0.55132937  0.16339155  0.58754256     0.08500
H842        H  0.56386650  0.21986988  0.60667039     0.12200
H843        H  0.57941598  0.30392804  0.56691185     0.11900
H844        H  0.56846656  0.24717895  0.54785238     0.08500
C845        C  0.79607908  0.94991857  0.67499797    -0.10600
C846        C  0.82561904  0.91897462  0.67790757     0.06500
C847        C  0.86488965  0.92303559  0.67088394    -0.09400
C848        C  0.87444889  0.95730963  0.66137173    -0.11000
C849        C  0.84492319  0.98807046  0.65861111    -0.00800
C850        C  0.80562486  0.98403266  0.66543622    -0.09900
C851        C  0.81562272  0.88350115  0.68863803     0.06600
H852        H  0.88820146  0.89964965  0.67267075     0.08500
H853        H  0.90491841  0.95990191  0.65613622     0.11900
H854        H  0.78254573  0.00761918  0.66352243     0.12200
H855        H  0.76581492  0.94838754  0.68045207     0.08500
C856        C  0.84509643  0.86731152  0.69937844    -0.10600
C857        C  0.83419860  0.83679843  0.71055434    -0.09900
C858        C  0.79361253  0.82197149  0.71122684    -0.00800
C859        C  0.76478516  0.83671075  0.69999241    -0.11000
C860        C  0.77565948  0.86691285  0.68882469    -0.09400
H861        H  0.87611447  0.87948420  0.69966269     0.08500
H862        H  0.85707222  0.82599226  0.71904981     0.12200
H863        H  0.73333755  0.82559263  0.70005707     0.11900
H864        H  0.75245917  0.87769954  0.68046744     0.08500
C865        C  0.10920095  0.21484547  0.69475039    -0.10600
C866        C  0.09677255  0.17348545  0.69399460     0.06500
C867        C  0.11783877  0.14421890  0.70338668    -0.09400
C868        C  0.14979345  0.15628740  0.71366678    -0.11000
C869        C  0.16132147  0.19783286  0.71472957    -0.00800
C870        C  0.14107246  0.22686818  0.70498984    -0.09900
C871        C  0.06157148  0.16122909  0.68361707     0.06600
H872        H  0.10881989  0.11215693  0.70314709     0.08500
H873        H  0.16479982  0.13327038  0.72105186     0.11900
H874        H  0.14937922  0.25911850  0.70546765     0.12200
H875        H  0.09421434  0.23800524  0.68742629     0.08500
C876        C  0.02646954  0.18653028  0.68245104    -0.10600
C877        C  0.99386869  0.17576414  0.67232379    -0.09900
C878        C  0.99566814  0.13942567  0.66327685    -0.00800
C879        C  0.03011508  0.11364399  0.66460335    -0.11000
C880        C  0.06286102  0.12446559  0.67467962    -0.09400
H881        H  0.02419260  0.21465817  0.68938734     0.08500
H882        H  0.96738916  0.19592909  0.67139724     0.12200
H883        H  0.03195372  0.08562311  0.65757387     0.11900
H884        H  0.08958713  0.10456085  0.67518874     0.08500
C885        C  0.93719045  0.25456284  0.56459785    -0.10600
C886        C  0.94572321  0.29350141  0.57129858     0.06500
C887        C  0.94567780  0.29730776  0.58822216    -0.09400
C888        C  0.93593031  0.26373390  0.59805617    -0.11000
C889        C  0.92721478  0.22515107  0.59128222    -0.00800
C890        C  0.92863794  0.22076275  0.57447083    -0.09900
C891        C  0.95303351  0.33007327  0.56068961     0.06600
H892        H  0.95305377  0.32623119  0.59397437     0.08500
H893        H  0.93488731  0.26793815  0.61099504     0.11900
H894        H  0.92197627  0.19128976  0.56896556     0.12200
H895        H  0.93592077  0.25017950  0.55169301     0.08500
C896        C  0.97001000  0.32548931  0.54514930    -0.10600
C897        C  0.97343689  0.35919011  0.53474034    -0.09900
C898        C  0.96070869  0.39848429  0.53966145    -0.00800
C899        C  0.94671270  0.40374943  0.55556041    -0.11000
C900        C  0.94193146  0.36993168  0.56578625    -0.09400
H901        H  0.98039976  0.29579090  0.54088470     0.08500
H902        H  0.98514545  0.35427811  0.52267135     0.12200
H903        H  0.93837888  0.43395367  0.55998498     0.11900
H904        H  0.92846553  0.37518346  0.57752979     0.08500
C905        C  0.63371942  0.03990503  0.56156208    -0.10600
C906        C  0.67382425  0.04591953  0.55555705     0.06500
C907        C  0.68066452  0.04208521  0.53886252    -0.09400
C908        C  0.64778278  0.03477170  0.52837977    -0.11000
C909        C  0.60755194  0.03187181  0.53438746    -0.00800
C910        C  0.60090063  0.03304470  0.55107161    -0.09900
C911        C  0.70787736  0.05760655  0.56662376     0.06600
H912        H  0.71104559  0.04668545  0.53379193     0.08500
H913        H  0.65338083  0.03391201  0.51551690     0.11900
H914        H  0.57001672  0.03024173  0.55590832     0.12200
H915        H  0.62750288  0.04128359  0.57436579     0.08500
C916        C  0.70022277  0.08349152  0.57992066    -0.10600
C917        C  0.73186522  0.09378377  0.59056575    -0.09900
C918        C  0.77180185  0.07892903  0.58796777    -0.00800
C919        C  0.77996042  0.05401261  0.57456715    -0.11000
C920        C  0.74825743  0.04328093  0.56400715    -0.09400
H921        H  0.66979722  0.09600488  0.58207926     0.08500
H922        H  0.72525754  0.11319869  0.60085783     0.12200
H923        H  0.81073401  0.04220864  0.57250260     0.11900
H924        H  0.75522778  0.02300948  0.55402352     0.08500
C925        C  0.86144039  0.84085950  0.30608114    -0.10600
C926        C  0.90154535  0.82432825  0.30543332     0.06500
C927        C  0.91148628  0.79698114  0.29289398    -0.09400
C928        C  0.88161704  0.78476560  0.28181620    -0.11000
C929        C  0.84129958  0.80017682  0.28280528    -0.00800
C930        C  0.83164272  0.82909734  0.29477728    -0.09900
C931        C  0.93264597  0.83432775  0.31799862     0.06600
H932        H  0.94230839  0.78455596  0.29174387     0.08500
H933        H  0.88994355  0.76281988  0.27253994     0.11900
H934        H  0.80067157  0.84124703  0.29579992     0.12200
H935        H  0.85266729  0.86179132  0.31563390     0.08500
C936        C  0.93545254  0.87419466  0.32449964    -0.01800
C937        C  0.96519334  0.88338701  0.33613434    -0.09900
C938        C  0.99282366  0.85299444  0.34142597    -0.00800
C939        C  0.98993000  0.81314696  0.33507023    -0.11000
C940        C  0.95999085  0.80382495  0.32357017    -0.09400
H941        H  0.91523585  0.89849646  0.32036442     0.08500
H942        H  0.96722853  0.91442976  0.34081792     0.12200
H943        H  0.01117914  0.78937802  0.33890574     0.11900
H944        H  0.95821413  0.77261351  0.31906901     0.08500
C945        C  0.96371048  0.70222377  0.17595625    -0.10600
C946        C  0.93937555  0.67166064  0.18336200     0.06500
C947        C  0.94800235  0.63012777  0.17987736    -0.09400
C948        C  0.97960030  0.61954077  0.16917913    -0.11000
C949        C  0.00394996  0.65011568  0.16195549    -0.00800
C950        C  0.99593782  0.69154014  0.16558014    -0.09900
C951        C  0.90560429  0.68307670  0.19478507     0.06600
H952        H  0.93071941  0.60562315  0.18554985     0.08500
H953        H  0.98529257  0.58735819  0.16660287     0.11900
H954        H  0.01448674  0.71567977  0.16025226     0.12200
H955        H  0.95772386  0.73455477  0.17801508     0.08500
C956        C  0.90908442  0.71841061  0.20448197    -0.10600
C957        C  0.87751818  0.72954469  0.21504361    -0.09900
C958        C  0.84203788  0.70517076  0.21653904    -0.00800
C959        C  0.83846884  0.66953115  0.20713137    -0.11000
C960        C  0.86970886  0.65884712  0.19621583    -0.09400
H961        H  0.93647446  0.73734625  0.20413326     0.08500
H962        H  0.88121326  0.75700869  0.22229754     0.12200
H963        H  0.81120200  0.65046195  0.20797581     0.11900
H964        H  0.86539212  0.63187184  0.18876993     0.08500
C965        C  0.59609441  0.79048120  0.20275157    -0.10600
C966        C  0.60422464  0.82512986  0.19310977     0.06500
C967        C  0.64013725  0.84818102  0.19621924    -0.09400
C968        C  0.66762611  0.83613806  0.20839221    -0.11000
C969        C  0.65990680  0.80061785  0.21754694    -0.00800
C970        C  0.62370698  0.77821463  0.21468268    -0.09900
C971        C  0.57518311  0.83659702  0.17990650     0.06600
H972        H  0.64758197  0.87487554  0.18898331     0.08500
H973        H  0.69550972  0.85376295  0.21028035     0.11900
H974        H  0.61676404  0.75089977  0.22165595     0.12200
H975        H  0.56826030  0.77265720  0.20110152     0.08500
C976        C  0.55437236  0.80584942  0.17114842    -0.10600
C977        C  0.52456211  0.81618894  0.15970272    -0.09900
C978        C  0.51544706  0.85755099  0.15640466    -0.00800
C979        C  0.53750121  0.88838987  0.16457735    -0.11000
C980        C  0.56679880  0.87806404  0.17628436    -0.09400
H981        H  0.56068654  0.77359814  0.17328206     0.08500
H982        H  0.50788197  0.79180561  0.15367115     0.12200
H983        H  0.53101214  0.92054288  0.16224660     0.11900
H984        H  0.58188842  0.90258391  0.18283221     0.08500
C985        C  0.57951116  0.64625582  0.33567919    -0.10600
C986        C  0.57284949  0.65090195  0.31900588     0.06500
C987        C  0.53242991  0.64671029  0.31309746    -0.09400
C988        C  0.49955549  0.63882235  0.32358682    -0.11000
C989        C  0.50626566  0.63476229  0.34022239    -0.00800
C990        C  0.54660802  0.63818775  0.34615500    -0.09900
C991        C  0.60745245  0.66198894  0.30792702     0.06600
H992        H  0.52596940  0.65070543  0.30040179     0.08500
H993        H  0.46867488  0.63635330  0.31875155     0.11900
H994        H  0.55256091  0.63472666  0.35892045     0.12200
H995        H  0.61024090  0.64869771  0.34063838     0.08500
C996        C  0.63774063  0.69028940  0.31281859    -0.10600
C997        C  0.66817731  0.70359119  0.30206549    -0.09900
C998        C  0.66952262  0.68855005  0.28621011    -0.00800
C999        C  0.64043799  0.65899943  0.28144504    -0.11000
C1000       C  0.60955331  0.64605776  0.29215207    -0.09400
H1001       H  0.63691251  0.70360934  0.32476809     0.08500
H1002       H  0.69016984  0.72647715  0.30604794     0.12200
H1003       H  0.64060548  0.64710574  0.26925644     0.11900
H1004       H  0.58710106  0.62381138  0.28803326     0.08500
loop_ 
_geom_bond_atom_site_label_1 
_geom_bond_atom_site_label_2 
_geom_bond_distance 
_geom_bond_site_symmetry_2 
_ccdc_geom_bond_type 
O1            C4   1.272       .  A
O1           Cd6   2.507       .  S
C2           O11   1.265       .  A
C2            O7   1.270       .  A
C2          C998   1.482       .  S
O3            C9   1.272       .  A
O3           Cd6   2.487       .  S
C4           O12   1.264       .  A
C4          C958   1.477       .  S
C5           O10   1.269       .  A
C5            O8   1.263       .  A
C5          C969   1.479       .  S
Cd6          O13   2.418       .  S
Cd6          O12   2.417       .  S
Cd6          O11   2.449       .  S
Cd6           O7   2.506       .  S
Cd6          O10   2.510       .  S
Cd6           O8   2.424       .  S
C9           O13   1.267       .  A
C9          C929   1.475       .  S
N14          C19   1.353       .  A
N14          C18   1.353       .  A
N14          H46   1.038       .  S
N15          C22   1.351       .  A
N15          C23   1.353       .  A
N16          C21   1.353       .  A
N16          C20   1.354       .  A
N16          H47   1.039       .  S
N17          C24   1.353       .  A
N17          C25   1.351       .  A
C18          C26   1.387       .  A
C18          C34   1.414       .  A
C19          C35   1.415       .  A
C19          C27   1.387       .  A
C20          C28   1.388       .  A
C20          C37   1.418       .  A
C21          C36   1.413       .  A
C21          C29   1.386       .  A
C22          C34   1.413       .  A
C22          C30   1.386       .  A
C23          C37   1.415       .  A
C23          C31   1.386       .  A
C24          C32   1.386       .  A
C24          C35   1.414       .  A
C25          C33   1.387       .  A
C25          C36   1.413       .  A
C26          C27   1.376       .  A
C26          H38   1.082       .  S
C27          H39   1.082       .  S
C28          C29   1.374       .  A
C28          H40   1.082       .  S
C29          H41   1.082       .  S
C30          C31   1.372       .  A
C30          H42   1.082   1_655  S
C31          H43   1.082       .  S
C32          C33   1.372       .  A
C32          H44   1.082   1_545  S
C33          H45   1.082       .  S
C34         C878   1.481       .  S
C35         C849   1.488   1_545  S
C36         C918   1.480       .  S
C37         C889   1.494       .  S
C48          S49   1.795       .  S
C48          S52   1.799   1_565  S
C48          C56   1.351   1_565  D
S49          C50   1.791       .  S
C50          C51   1.351       .  D
C50         C809   1.483       .  S
C51          S52   1.796   1_565  S
C51         C798   1.490       .  S
C53          S57   1.795       .  S
C53          C54   1.349       .  D
C53         C829   1.490       .  S
C54          S55   1.791   1_545  S
C54         C909   1.479       .  S
S55          C56   1.798   1_565  S
C56          S57   1.798       .  S
N58          C63   1.353       .  A
N58          C62   1.353       .  A
N58          H90   1.038       .  S
N59          C66   1.352       .  A
N59          C67   1.352       .  A
N60          C65   1.355       .  A
N60          C64   1.354       .  A
N60          H91   1.035       .  S
N61          C68   1.352       .  A
N61          C69   1.352       .  A
C62          C70   1.388       .  A
C62          C78   1.415       .  A
C63          C79   1.413       .  A
C63          C71   1.386       .  A
C64          C72   1.387       .  A
C64          C81   1.419       .  A
C65          C80   1.420       .  A
C65          C73   1.388       .  A
C66          C78   1.415       .  A
C66          C74   1.386   1_455  A
C67          C81   1.415       .  A
C67          C75   1.386       .  A
C68          C76   1.385       .  A
C68          C79   1.412       .  A
C69          C77   1.388       .  A
C69          C80   1.416       .  A
C70          C71   1.371       .  A
C70          H82   1.082       .  S
C71          H83   1.082       .  S
C72          C73   1.374       .  A
C72          H84   1.082       .  S
C73          H85   1.082       .  S
C74          C75   1.373   1_655  A
C74          H86   1.082       .  S
C75          H87   1.082   1_455  S
C76          C77   1.371       .  A
C76          H88   1.082   1_565  S
C77          H89   1.082       .  S
C78         C938   1.488   1_455  S
C79         C758   1.483       .  S
C80         C789   1.486       .  S
C81         C778   1.485       .  S
C92          S93   1.798   1_455  S
C92          S96   1.801       .  S
C92         C100   1.353   1_455  D
S93          C94   1.793   1_655  S
C94          C95   1.348       .  D
C94         C769   1.483       .  S
C95          S96   1.794       .  S
C95         C729   1.486       .  S
C97         S101   1.798   1_655  S
C97          C98   1.352       .  D
C97         C898   1.493       .  S
C98          S99   1.796       .  S
C98         C709   1.486       .  S
S99         C100   1.798       .  S
C100        S101   1.796   1_655  S
N102        C107   1.354       .  A
N102        C106   1.354       .  A
N102        H134   1.042       .  S
N103        C110   1.352       .  A
N103        C111   1.350       .  A
N104        C109   1.354       .  A
N104        C108   1.352       .  A
N104        H135   1.040       .  S
N105        C112   1.352       .  A
N105        C113   1.353       .  A
C106        C114   1.386       .  A
C106        C122   1.416       .  A
C107        C123   1.417       .  A
C107        C115   1.388       .  A
C108        C116   1.387       .  A
C108        C125   1.413       .  A
C109        C124   1.415       .  A
C109        C117   1.387       .  A
C110        C122   1.413       .  A
C110        C118   1.386       .  A
C111        C125   1.412       .  A
C111        C119   1.386       .  A
C112        C120   1.387       .  A
C112        C123   1.416       .  A
C113        C121   1.385       .  A
C113        C124   1.414       .  A
C114        C115   1.375       .  A
C114        H126   1.082       .  S
C115        H127   1.082       .  S
C116        C117   1.374       .  A
C116        H128   1.082       .  S
C117        H129   1.082       .  S
C118        C119   1.376       .  A
C118        H130   1.082       .  S
C119        H131   1.082       .  S
C120        C121   1.375       .  A
C120        H132   1.082       .  S
C121        H133   1.082       .  S
C122        C838   1.494       .  S
C123        C718   1.496       .  S
C124        C698   1.493       .  S
C125        C669   1.482       .  S
N136        C141   1.355       .  A
N136        C140   1.353       .  A
N136        H168   1.040       .  S
N137        C144   1.352       .  A
N137        C145   1.354       .  A
N138        C143   1.354       .  A
N138        C142   1.355       .  A
N138        H169   1.041       .  S
N139        C146   1.352       .  A
N139        C147   1.352       .  A
C140        C148   1.387       .  A
C140        C156   1.415       .  A
C141        C157   1.418       .  A
C141        C149   1.389       .  A
C142        C150   1.387       .  A
C142        C159   1.417       .  A
C143        C158   1.416       .  A
C143        C151   1.388       .  A
C144        C156   1.414       .  A
C144        C152   1.386       .  A
C145        C159   1.416       .  A
C145        C153   1.386       .  A
C146        C154   1.386       .  A
C146        C157   1.415       .  A
C147        C155   1.386       .  A
C147        C158   1.414       .  A
C148        C149   1.375       .  A
C148        H160   1.083       .  S
C149        H161   1.082       .  S
C150        C151   1.374       .  A
C150        H162   1.082       .  S
C151        H163   1.082       .  S
C152        C153   1.372       .  A
C152        H164   1.082       .  S
C153        H165   1.082       .  S
C154        C155   1.374       .  A
C154        H166   1.082       .  S
C155        H167   1.082       .  S
C156        C818   1.483       .  S
C157        C738   1.489       .  S
C158        C658   1.485       .  S
C159        C989   1.495       .  S
C170        S171   1.800   1_545  S
C170        S174   1.803   1_655  S
C170        C178   1.355   1_646  D
S171        C172   1.794   1_565  S
C172        C173   1.347       .  D
C172        C589   1.483       .  S
C173        S174   1.796   1_655  S
C173        C578   1.488       .  S
C175        S179   1.798   1_565  S
C175        C176   1.351       .  D
C175        C618   1.489       .  S
C176        S177   1.796   1_455  S
C176        C629   1.489       .  S
S177        C178   1.800   1_655  S
C178        S179   1.798   1_565  S
N180        C185   1.355       .  A
N180        C184   1.354       .  A
N180        H212   1.038       .  S
N181        C188   1.352       .  A
N181        C189   1.353       .  A
N182        C187   1.354       .  A
N182        C186   1.355       .  A
N182        H213   1.040       .  S
N183        C190   1.353       .  A
N183        C191   1.353       .  A
C184        C192   1.387       .  A
C184        C200   1.416       .  A
C185        C201   1.419       .  A
C185        C193   1.388       .  A
C186        C194   1.387       .  A
C186        C203   1.417       .  A
C187        C202   1.414       .  A
C187        C195   1.386       .  A
C188        C200   1.414       .  A
C188        C196   1.386       .  A
C189        C203   1.416       .  A
C189        C197   1.387       .  A
C190        C198   1.387       .  A
C190        C201   1.417       .  A
C191        C199   1.385       .  A
C191        C202   1.414       .  A
C192        C193   1.375       .  A
C192        H204   1.082       .  S
C193        H205   1.082       .  S
C194        C195   1.373       .  A
C194        H206   1.082       .  S
C195        H207   1.082       .  S
C196        C197   1.373       .  A
C196        H208   1.082       .  S
C197        H209   1.082   1_545  S
C198        C199   1.373       .  A
C198        H210   1.082       .  S
C199        H211   1.082       .  S
C200        C598   1.485       .  S
C201        C538   1.493       .  S
C202        C518   1.488       .  S
C203        C549   1.493   1_545  S
N214        C219   1.355       .  A
N214        C218   1.353       .  A
N214        H246   1.038       .  S
N215        C222   1.351       .  A
N215        C223   1.352       .  A
N216        C221   1.352       .  A
N216        C220   1.353       .  A
N216        H247   1.037       .  S
N217        C224   1.352       .  A
N217        C225   1.351       .  A
C218        C226   1.386       .  A
C218        C234   1.414       .  A
C219        C235   1.418       .  A
C219        C227   1.387       .  A
C220        C228   1.388       .  A
C220        C237   1.416       .  A
C221        C236   1.412       .  A
C221        C229   1.387       .  A
C222        C234   1.413       .  A
C222        C230   1.386       .  A
C223        C237   1.414       .  A
C223        C231   1.386       .  A
C224        C232   1.386       .  A
C224        C235   1.414       .  A
C225        C233   1.386       .  A
C225        C236   1.412       .  A
C226        C227   1.375       .  A
C226        H238   1.082       .  S
C227        H239   1.082       .  S
C228        C229   1.375       .  A
C228        H240   1.082       .  S
C229        H241   1.082       .  S
C230        C231   1.375       .  A
C230        H242   1.082       .  S
C231        H243   1.082       .  S
C232        C233   1.372       .  A
C232        H244   1.082       .  S
C233        H245   1.082       .  S
C234        C489   1.482       .  S
C235        C569   1.493       .  S
C236        C469   1.478       .  S
C237        C458   1.487       .  S
O248        C251   1.274       .  A
O248       Cd253   2.482       .  S
C249        O258   1.266       .  A
C249        O254   1.273       .  A
C249        C749   1.480       .  S
O250        C256   1.274       .  A
O250       Cd253   2.489       .  S
C251        O259   1.267       .  A
C251        C438   1.478       .  S
C252        O257   1.274       .  A
C252        O255   1.266       .  A
C252        C649   1.483       .  S
Cd253       O260   2.422       .  S
Cd253       O259   2.399       .  S
Cd253       O258   2.408       .  S
Cd253       O254   2.488       .  S
Cd253       O257   2.497       .  S
Cd253       O255   2.420       .  S
C256        O260   1.267       .  A
C256        C418   1.482       .  S
N261        C266   1.355       .  A
N261        C265   1.353       .  A
N261        H293   1.040       .  S
N262        C269   1.351       .  A
N262        C270   1.352       .  A
N263        C268   1.354       .  A
N263        C267   1.356       .  A
N263        H294   1.038       .  S
N264        C271   1.353       .  A
N264        C272   1.351       .  A
C265        C273   1.386       .  A
C265        C281   1.413       .  A
C266        C282   1.417       .  A
C266        C274   1.388       .  A
C267        C275   1.387       .  A
C267        C284   1.418       .  A
C268        C283   1.419       .  A
C268        C276   1.388       .  A
C269        C281   1.413       .  A
C269        C277   1.386       .  A
C270        C284   1.413       .  A
C270        C278   1.386       .  A
C271        C279   1.386       .  A
C271        C282   1.416       .  A
C272        C280   1.386       .  A
C272        C283   1.415       .  A
C273        C274   1.373       .  A
C273        H285   1.082       .  S
C274        H286   1.082       .  S
C275        C276   1.373       .  A
C275        H287   1.081       .  S
C276        H288   1.082       .  S
C277        C278   1.372       .  A
C277        H289   1.082   1_565  S
C278        H290   1.082       .  S
C279        C280   1.374       .  A
C279        H291   1.082       .  S
C280        H292   1.082       .  S
C281        C409   1.485       .  S
C282        C978   1.496       .  S
C283        C398   1.487       .  S
C284        C609   1.487       .  S
C295        S296   1.799       .  S
C295        S299   1.798       .  S
C295        C303   1.351   1_556  D
S296        C297   1.792       .  S
C297        C298   1.348       .  D
C297        C498   1.485       .  S
C298        S299   1.793       .  S
C298        C529   1.483       .  S
C300        S304   1.792       .  S
C300        C301   1.343       .  D
C300        C378   1.480       .  S
C301        S302   1.789       .  S
C301        C389   1.476       .  S
S302        C303   1.798       .  S
C303        S304   1.800       .  S
O305        C308   1.272       .  A
O305       Cd310   2.468       .  S
C306        O315   1.265       .  A
C306        O311   1.272       .  A
C306        C678   1.475       .  S
O307        C313   1.272       .  A
O307       Cd310   2.495       .  S
C308        O316   1.266       .  A
C308        C478   1.473       .  S
C309        O314   1.273       .  A
C309        O312   1.267       .  A
C309        C869   1.479       .  S
Cd310       O317   2.407       .  S
Cd310       O316   2.405       .  S
Cd310       O315   2.390       .  S
Cd310       O311   2.490       .  S
Cd310       O314   2.474       .  S
Cd310       O312   2.418       .  S
C313        O317   1.265       .  A
C313        C509   1.480       .  S
O318        C321   1.270       .  A
O318       Cd323   2.508       .  S
C319        O328   1.266       .  A
C319        O324   1.272       .  A
C319        C558   1.481       .  S
O320        C326   1.271       .  A
O320       Cd323   2.487       .  S
C321        O329   1.264       .  A
C321        C689   1.481       .  S
C322        O327   1.272       .  A
C322        O325   1.264       .  A
C322        C858   1.482       .  S
Cd323       O330   2.434       .  S
Cd323       O329   2.434       .  S
Cd323       O328   2.432       .  S
Cd323       O324   2.497       .  S
Cd323       O327   2.505       .  S
Cd323       O325   2.414       .  S
C326        O330   1.265       .  A
C326        C449   1.477       .  S
N331        C336   1.353       .  A
N331        C335   1.354       .  A
N331        H363   1.038       .  S
N332        C339   1.352       .  A
N332        C340   1.352       .  A
N333        C338   1.353       .  A
N333        C337   1.354       .  A
N333        H364   1.040       .  S
N334        C341   1.352       .  A
N334        C342   1.352       .  A
C335        C343   1.388       .  A
C335        C351   1.417       .  A
C336        C352   1.415       .  A
C336        C344   1.387       .  A
C337        C345   1.388       .  A
C337        C354   1.417       .  A
C338        C353   1.414       .  A
C338        C346   1.386       .  A
C339        C351   1.414       .  A
C339        C347   1.386       .  A
C340        C354   1.415       .  A
C340        C348   1.386       .  A
C341        C349   1.386       .  A
C341        C352   1.412       .  A
C342        C350   1.387       .  A
C342        C353   1.414       .  A
C343        C344   1.374       .  A
C343        H355   1.082       .  S
C344        H356   1.082       .  S
C345        C346   1.375       .  A
C345        H357   1.082       .  S
C346        H358   1.082       .  S
C347        C348   1.373       .  A
C347        H359   1.082       .  S
C348        H360   1.082   1_455  S
C349        C350   1.374       .  A
C349        H361   1.082       .  S
C350        H362   1.082       .  S
C351        C638   1.487       .  S
C352        C369   1.482       .  S
C353        C429   1.487       .  S
C354        C949   1.493       .  S
C365        C366   1.410       .  A
C365        C370   1.399       .  A
C365        H375   1.082       .  S
C366        C371   1.491       .  S
C366        C367   1.408       .  A
C367        C368   1.398       .  A
C367        H372   1.082       .  S
C368        C369   1.400       .  A
C368        H373   1.083       .  S
C369        C370   1.401       .  A
C370        H374   1.083       .  S
C371        C376   1.410       .  A
C371        C380   1.408       .  A
C376        C377   1.399       .  A
C376        H381   1.082       .  S
C377        C378   1.399       .  A
C377        H382   1.083       .  S
C378        C379   1.402       .  A
C379        C380   1.397       .  A
C379        H383   1.083       .  S
C380        H384   1.082       .  S
C385        C386   1.406       .  A
C385        C390   1.398       .  A
C385        H395   1.083       .  S
C386        C391   1.480       .  S
C386        C387   1.405       .  A
C387        C388   1.397       .  A
C387        H392   1.083       .  S
C388        C389   1.402       .  A
C388        H393   1.083       .  S
C389        C390   1.400       .  A
C390        H394   1.083       .  S
C391        C396   1.405       .  A
C391        C400   1.405       .  A
C396        C397   1.397       .  A
C396        H401   1.083       .  S
C397        C398   1.403       .  A
C397        H402   1.083       .  S
C398        C399   1.404       .  A
C399        C400   1.398       .  A
C399        H403   1.083       .  S
C400        H404   1.083       .  S
C405        C406   1.406       .  A
C405        C410   1.398       .  A
C405        H415   1.083       .  S
C406        C411   1.486       .  S
C406        C407   1.408       .  A
C407        C408   1.399   1_545  A
C407        H412   1.083       .  S
C408        C409   1.402       .  A
C408        H413   1.083       .  S
C409        C410   1.402   1_565  A
C410        H414   1.083       .  S
C411        C416   1.407       .  A
C411        C420   1.404       .  A
C416        C417   1.401       .  A
C416        H421   1.083       .  S
C417        C418   1.404       .  A
C417        H422   1.083       .  S
C418        C419   1.406       .  A
C419        C420   1.397       .  A
C419        H423   1.083       .  S
C420        H424   1.083       .  S
C425        C426   1.407       .  A
C425        C430   1.398       .  A
C425        H435   1.082       .  S
C426        C431   1.489       .  S
C426        C427   1.409       .  A
C427        C428   1.398       .  A
C427        H432   1.082       .  S
C428        C429   1.402       .  A
C428        H433   1.083       .  S
C429        C430   1.403       .  A
C430        H434   1.083       .  S
C431        C436   1.409       .  A
C431        C440   1.405       .  A
C436        C437   1.402       .  A
C436        H441   1.082       .  S
C437        C438   1.403       .  A
C437        H442   1.083       .  S
C438        C439   1.405       .  A
C439        C440   1.394       .  A
C439        H443   1.083       .  S
C440        H444   1.083       .  S
C445        C446   1.408       .  A
C445        C450   1.400       .  A
C445        H455   1.083       .  S
C446        C451   1.487       .  S
C446        C447   1.405       .  A
C447        C448   1.399       .  A
C447        H452   1.083       .  S
C448        C449   1.405       .  A
C448        H453   1.083       .  S
C449        C450   1.403       .  A
C450        H454   1.083       .  S
C451        C456   1.406       .  A
C451        C460   1.408       .  A
C456        C457   1.397       .  A
C456        H461   1.083       .  S
C457        C458   1.402       .  A
C457        H462   1.083       .  S
C458        C459   1.404       .  A
C459        C460   1.401       .  A
C459        H463   1.083       .  S
C460        H464   1.083       .  S
C465        C466   1.405       .  A
C465        C470   1.397       .  A
C465        H475   1.083       .  S
C466        C471   1.478       .  S
C466        C467   1.405       .  A
C467        C468   1.395   1_455  A
C467        H472   1.083       .  S
C468        C469   1.401       .  A
C468        H473   1.083       .  S
C469        C470   1.401   1_655  A
C470        H474   1.083       .  S
C471        C476   1.405       .  A
C471        C480   1.403       .  A
C476        C477   1.398       .  A
C476        H481   1.083       .  S
C477        C478   1.403       .  A
C477        H482   1.083       .  S
C478        C479   1.405       .  A
C479        C480   1.394       .  A
C479        H483   1.083       .  S
C480        H484   1.083       .  S
C485        C486   1.407       .  A
C485        C490   1.400       .  A
C485        H495   1.083       .  S
C486        C491   1.486       .  S
C486        C487   1.407       .  A
C487        C488   1.396       .  A
C487        H492   1.083       .  S
C488        C489   1.400       .  A
C488        H493   1.083       .  S
C489        C490   1.402       .  A
C490        H494   1.083       .  S
C491        C496   1.407       .  A
C491        C500   1.405       .  A
C496        C497   1.401       .  A
C496        H501   1.083       .  S
C497        C498   1.403       .  A
C497        H502   1.083       .  S
C498        C499   1.403       .  A
C499        C500   1.395       .  A
C499        H503   1.083       .  S
C500        H504   1.083       .  S
C505        C506   1.405       .  A
C505        C510   1.394       .  A
C505        H515   1.083       .  S
C506        C511   1.490       .  S
C506        C507   1.409       .  A
C507        C508   1.403       .  A
C507        H512   1.082       .  S
C508        C509   1.404       .  A
C508        H513   1.083       .  S
C509        C510   1.405       .  A
C510        H514   1.083       .  S
C511        C516   1.409       .  A
C511        C520   1.407       .  A
C516        C517   1.397       .  A
C516        H521   1.083       .  S
C517        C518   1.401       .  A
C517        H522   1.083       .  S
C518        C519   1.404       .  A
C519        C520   1.401       .  A
C519        H523   1.083       .  S
C520        H524   1.083       .  S
C525        C526   1.407       .  A
C525        C530   1.400       .  A
C525        H535   1.083       .  S
C526        C531   1.484       .  S
C526        C527   1.405       .  A
C527        C528   1.398       .  A
C527        H532   1.083       .  S
C528        C529   1.404       .  A
C528        H533   1.083       .  S
C529        C530   1.402       .  A
C530        H534   1.083       .  S
C531        C536   1.406       .  A
C531        C540   1.405       .  A
C536        C537   1.400       .  A
C536        H541   1.083       .  S
C537        C538   1.405       .  A
C537        H542   1.083       .  S
C538        C539   1.404       .  A
C539        C540   1.398       .  A
C539        H543   1.083       .  S
C540        H544   1.083       .  S
C545        C546   1.411       .  A
C545        C550   1.399       .  A
C545        H555   1.082       .  S
C546        C551   1.498       .  S
C546        C547   1.409       .  A
C547        C548   1.400       .  A
C547        H552   1.082       .  S
C548        C549   1.404       .  A
C548        H553   1.083       .  S
C549        C550   1.402       .  A
C550        H554   1.083   1_565  S
C551        C556   1.408       .  A
C551        C560   1.411       .  A
C556        C557   1.397       .  A
C556        H561   1.082       .  S
C557        C558   1.404       .  A
C557        H562   1.083       .  S
C558        C559   1.403       .  A
C559        C560   1.402       .  A
C559        H563   1.083       .  S
C560        H564   1.082       .  S
C565        C566   1.407       .  A
C565        C570   1.400       .  A
C565        H575   1.083   1_655  S
C566        C571   1.489       .  S
C566        C567   1.408       .  A
C567        C568   1.399       .  A
C567        H572   1.083       .  S
C568        C569   1.404       .  A
C568        H573   1.083       .  S
C569        C570   1.404       .  A
C570        H574   1.083       .  S
C571        C576   1.408       .  A
C571        C580   1.406       .  A
C576        C577   1.402       .  A
C576        H581   1.083   1_655  S
C577        C578   1.402       .  A
C577        H582   1.083   1_655  S
C578        C579   1.404       .  A
C579        C580   1.397       .  A
C579        H583   1.083       .  S
C580        H584   1.083       .  S
C585        C586   1.409       .  A
C585        C590   1.400       .  A
C585        H595   1.082       .  S
C586        C591   1.491       .  S
C586        C587   1.407       .  A
C587        C588   1.397       .  A
C587        H592   1.082       .  S
C588        C589   1.403       .  A
C588        H593   1.083       .  S
C589        C590   1.400       .  A
C590        H594   1.083       .  S
C591        C596   1.408       .  A
C591        C600   1.409       .  A
C596        C597   1.399       .  A
C596        H601   1.082       .  S
C597        C598   1.401       .  A
C597        H602   1.083       .  S
C598        C599   1.401       .  A
C599        C600   1.400       .  A
C599        H603   1.083       .  S
C600        H604   1.083       .  S
C605        C606   1.404       .  A
C605        C610   1.400       .  A
C605        H615   1.083       .  S
C606        C611   1.478       .  S
C606        C607   1.405       .  A
C607        C608   1.398       .  A
C607        H612   1.083       .  S
C608        C609   1.403       .  A
C608        H613   1.083       .  S
C609        C610   1.404       .  A
C610        H614   1.083       .  S
C611        C616   1.404       .  A
C611        C620   1.402       .  A
C616        C617   1.401       .  A
C616        H621   1.083   1_565  S
C617        C618   1.404       .  A
C617        H622   1.083   1_565  S
C618        C619   1.406       .  A
C619        C620   1.396       .  A
C619        H623   1.083       .  S
C620        H624   1.083       .  S
C625        C626   1.408       .  A
C625        C630   1.398       .  A
C625        H635   1.082       .  S
C626        C631   1.493       .  S
C626        C627   1.409       .  A
C627        C628   1.400       .  A
C627        H632   1.082       .  S
C628        C629   1.402       .  A
C628        H633   1.083       .  S
C629        C630   1.405       .  A
C630        H634   1.083       .  S
C631        C636   1.409       .  A
C631        C640   1.409       .  A
C636        C637   1.398       .  A
C636        H641   1.082       .  S
C637        C638   1.402       .  A
C637        H642   1.083       .  S
C638        C639   1.402       .  A
C639        C640   1.400       .  A
C639        H643   1.083       .  S
C640        H644   1.082       .  S
C645        C646   1.403       .  A
C645        C650   1.397       .  A
C645        H655   1.083       .  S
C646        C651   1.484       .  S
C646        C647   1.407       .  A
C647        C648   1.403       .  A
C647        H652   1.083       .  S
C648        C649   1.405       .  A
C648        H653   1.083       .  S
C649        C650   1.407       .  A
C650        H654   1.083       .  S
C651        C656   1.406       .  A
C651        C660   1.406       .  A
C656        C657   1.399       .  A
C656        H661   1.083       .  S
C657        C658   1.402       .  A
C657        H662   1.083       .  S
C658        C659   1.403       .  A
C659        C660   1.400       .  A
C659        H663   1.083       .  S
C660        H664   1.083       .  S
C665        C666   1.406       .  A
C665        C670   1.397       .  A
C665        H675   1.082       .  S
C666        C671   1.486       .  S
C666        C667   1.409       .  A
C667        C668   1.396       .  A
C667        H672   1.083       .  S
C668        C669   1.400       .  A
C668        H673   1.083       .  S
C669        C670   1.402       .  A
C670        H674   1.083       .  S
C671        C676   1.410       .  A
C671        C680   1.403       .  A
C676        C677   1.402       .  A
C676        H681   1.083       .  S
C677        C678   1.404       .  A
C677        H682   1.083       .  S
C678        C679   1.404       .  A
C679        C680   1.391       .  A
C679        H683   1.083       .  S
C680        H684   1.083       .  S
C685        C686   1.409       .  A
C685        C690   1.403       .  A
C685        H695   1.082       .  S
C686        C691   1.493       .  S
C686        C687   1.406       .  A
C687        C688   1.397       .  A
C687        H692   1.083       .  S
C688        C689   1.405       .  A
C688        H693   1.083       .  S
C689        C690   1.404       .  A
C690        H694   1.083       .  S
C691        C696   1.407       .  A
C691        C700   1.409       .  A
C696        C697   1.400       .  A
C696        H701   1.082       .  S
C697        C698   1.406       .  A
C697        H702   1.083       .  S
C698        C699   1.403       .  A
C699        C700   1.400       .  A
C699        H703   1.083       .  S
C700        H704   1.083       .  S
C705        C706   1.406       .  A
C705        C710   1.400       .  A
C705        H715   1.083       .  S
C706        C711   1.482       .  S
C706        C707   1.404       .  A
C707        C708   1.398       .  A
C707        H712   1.083       .  S
C708        C709   1.405       .  A
C708        H713   1.083       .  S
C709        C710   1.403       .  A
C710        H714   1.083       .  S
C711        C716   1.405       .  A
C711        C720   1.404       .  A
C716        C717   1.399       .  A
C716        H721   1.083       .  S
C717        C718   1.406       .  A
C717        H722   1.083       .  S
C718        C719   1.407       .  A
C719        C720   1.399       .  A
C719        H723   1.083       .  S
C720        H724   1.083       .  S
C725        C726   1.408       .  A
C725        C730   1.401       .  A
C725        H735   1.083       .  S
C726        C731   1.487       .  S
C726        C727   1.406       .  A
C727        C728   1.396       .  A
C727        H732   1.083       .  S
C728        C729   1.404       .  A
C728        H733   1.083       .  S
C729        C730   1.403       .  A
C730        H734   1.083       .  S
C731        C736   1.406       .  A
C731        C740   1.408       .  A
C736        C737   1.400       .  A
C736        H741   1.083       .  S
C737        C738   1.404       .  A
C737        H742   1.083       .  S
C738        C739   1.402       .  A
C739        C740   1.397       .  A
C739        H743   1.083       .  S
C740        H744   1.083       .  S
C745        C746   1.409       .  A
C745        C750   1.402       .  A
C745        H755   1.083       .  S
C746        C751   1.487       .  S
C746        C747   1.404       .  A
C747        C748   1.394       .  A
C747        H752   1.083       .  S
C748        C749   1.405       .  A
C748        H753   1.083       .  S
C749        C750   1.404       .  A
C750        H754   1.083       .  S
C751        C756   1.407       .  A
C751        C760   1.409       .  A
C756        C757   1.398       .  A
C756        H761   1.083       .  S
C757        C758   1.402   1_545  A
C757        H762   1.083       .  S
C758        C759   1.400       .  A
C759        C760   1.397   1_565  A
C759        H763   1.083       .  S
C760        H764   1.083       .  S
C765        C766   1.408       .  A
C765        C770   1.399       .  A
C765        H775   1.082       .  S
C766        C771   1.491       .  S
C766        C767   1.408       .  A
C767        C768   1.398       .  A
C767        H772   1.082       .  S
C768        C769   1.403       .  A
C768        H773   1.083       .  S
C769        C770   1.400       .  A
C770        H774   1.083       .  S
C771        C776   1.409       .  A
C771        C780   1.408       .  A
C776        C777   1.399       .  A
C776        H781   1.082       .  S
C777        C778   1.401       .  A
C777        H782   1.083       .  S
C778        C779   1.401       .  A
C779        C780   1.398       .  A
C779        H783   1.083       .  S
C780        H784   1.082       .  S
C785        C786   1.403       .  A
C785        C790   1.399       .  A
C785        H795   1.083       .  S
C786        C791   1.477       .  S
C786        C787   1.405       .  A
C787        C788   1.397       .  A
C787        H792   1.083       .  S
C788        C789   1.403       .  A
C788        H793   1.083       .  S
C789        C790   1.404       .  A
C790        H794   1.083       .  S
C791        C796   1.405       .  A
C791        C800   1.401       .  A
C796        C797   1.401       .  A
C796        H801   1.083   1_565  S
C797        C798   1.405       .  A
C797        H802   1.083   1_565  S
C798        C799   1.407       .  A
C799        C800   1.394       .  A
C799        H803   1.082       .  S
C800        H804   1.083       .  S
C805        C806   1.404       .  A
C805        C810   1.397       .  A
C805        H815   1.083       .  S
C806        C811   1.477       .  S
C806        C807   1.404       .  A
C807        C808   1.396       .  A
C807        H812   1.083       .  S
C808        C809   1.405       .  A
C808        H813   1.083       .  S
C809        C810   1.402       .  A
C810        H814   1.083       .  S
C811        C816   1.404       .  A
C811        C820   1.405       .  A
C816        C817   1.398       .  A
C816        H821   1.083       .  S
C817        C818   1.403       .  A
C817        H822   1.083       .  S
C818        C819   1.402       .  A
C819        C820   1.397       .  A
C819        H823   1.083       .  S
C820        H824   1.083       .  S
C825        C826   1.403       .  A
C825        C830   1.398       .  A
C825        H835   1.083       .  S
C826        C831   1.479       .  S
C826        C827   1.403       .  A
C827        C828   1.401       .  A
C827        H832   1.083       .  S
C828        C829   1.404       .  A
C828        H833   1.083       .  S
C829        C830   1.407       .  A
C830        H834   1.083       .  S
C831        C836   1.404       .  A
C831        C840   1.402       .  A
C836        C837   1.401       .  A
C836        H841   1.083       .  S
C837        C838   1.406       .  A
C837        H842   1.083       .  S
C838        C839   1.406       .  A
C839        C840   1.398       .  A
C839        H843   1.083       .  S
C840        H844   1.083       .  S
C845        C846   1.410       .  A
C845        C850   1.398       .  A
C845        H855   1.082       .  S
C846        C851   1.492       .  S
C846        C847   1.407       .  A
C847        C848   1.400       .  A
C847        H852   1.082       .  S
C848        C849   1.403       .  A
C848        H853   1.083       .  S
C849        C850   1.401       .  A
C850        H854   1.083   1_565  S
C851        C856   1.410       .  A
C851        C860   1.405       .  A
C856        C857   1.403       .  A
C856        H861   1.082       .  S
C857        C858   1.404       .  A
C857        H862   1.083       .  S
C858        C859   1.406       .  A
C859        C860   1.395       .  A
C859        H863   1.083       .  S
C860        H864   1.083       .  S
C865        C866   1.405       .  A
C865        C870   1.396       .  A
C865        H875   1.083       .  S
C866        C871   1.486       .  S
C866        C867   1.407       .  A
C867        C868   1.400       .  A
C867        H872   1.083       .  S
C868        C869   1.404       .  A
C868        H873   1.083       .  S
C869        C870   1.406       .  A
C870        H874   1.083       .  S
C871        C876   1.408       .  A
C871        C880   1.407       .  A
C876        C877   1.397   1_455  A
C876        H881   1.083       .  S
C877        C878   1.401       .  A
C877        H882   1.083       .  S
C878        C879   1.401   1_655  A
C879        C880   1.398       .  A
C879        H883   1.083       .  S
C880        H884   1.083       .  S
C885        C886   1.410       .  A
C885        C890   1.398       .  A
C885        H895   1.081       .  S
C886        C891   1.498       .  S
C886        C887   1.410       .  A
C887        C888   1.399       .  A
C887        H892   1.081       .  S
C888        C889   1.403       .  A
C888        H893   1.083       .  S
C889        C890   1.403       .  A
C890        H894   1.083       .  S
C891        C896   1.410       .  A
C891        C900   1.409       .  A
C896        C897   1.399       .  A
C896        H901   1.082       .  S
C897        C898   1.402       .  A
C897        H902   1.083       .  S
C898        C899   1.406       .  A
C899        C900   1.397       .  A
C899        H903   1.082       .  S
C900        H904   1.081       .  S
C905        C906   1.407       .  A
C905        C910   1.395       .  A
C905        H915   1.082       .  S
C906        C911   1.488       .  S
C906        C907   1.409       .  A
C907        C908   1.398       .  A
C907        H912   1.082       .  S
C908        C909   1.401       .  A
C908        H913   1.083       .  S
C909        C910   1.402       .  A
C910        H914   1.083       .  S
C911        C916   1.409       .  A
C911        C920   1.407       .  A
C916        C917   1.397       .  A
C916        H921   1.082       .  S
C917        C918   1.399       .  A
C917        H922   1.083       .  S
C918        C919   1.401       .  A
C919        C920   1.397       .  A
C919        H923   1.083       .  S
C920        H924   1.082       .  S
C925        C926   1.409       .  A
C925        C930   1.402       .  A
C925        H935   1.082       .  S
C926        C931   1.488       .  S
C926        C927   1.406       .  A
C927        C928   1.395       .  A
C927        H932   1.083       .  S
C928        C929   1.403       .  A
C928        H933   1.083       .  S
C929        C930   1.403       .  A
C930        H934   1.083       .  S
C931        C936   1.407       .  A
C931        C940   1.408       .  A
C936        C937   1.399       .  A
C936        H941   1.083       .  S
C937        C938   1.404       .  A
C937        H942   1.083       .  S
C938        C939   1.402       .  A
C939        C940   1.396       .  A
C939        H943   1.083   1_655  S
C940        H944   1.083       .  S
C945        C946   1.410       .  A
C945        C950   1.398       .  A
C945        H955   1.082       .  S
C946        C951   1.495       .  S
C946        C947   1.408       .  A
C947        C948   1.399       .  A
C947        H952   1.082       .  S
C948        C949   1.404   1_655  A
C948        H953   1.083       .  S
C949        C950   1.403   1_455  A
C950        H954   1.083   1_655  S
C951        C956   1.407       .  A
C951        C960   1.412       .  A
C956        C957   1.395       .  A
C956        H961   1.082       .  S
C957        C958   1.404       .  A
C957        H962   1.083       .  S
C958        C959   1.402       .  A
C959        C960   1.403       .  A
C959        H963   1.083       .  S
C960        H964   1.082       .  S
C965        C966   1.406       .  A
C965        C970   1.394       .  A
C965        H975   1.082       .  S
C966        C971   1.493       .  S
C966        C967   1.410       .  A
C967        C968   1.404       .  A
C967        H972   1.082       .  S
C968        C969   1.404       .  A
C968        H973   1.083       .  S
C969        C970   1.403       .  A
C970        H974   1.083       .  S
C971        C976   1.409       .  A
C971        C980   1.407       .  A
C976        C977   1.398       .  A
C976        H981   1.082       .  S
C977        C978   1.403       .  A
C977        H982   1.083       .  S
C978        C979   1.407       .  A
C979        C980   1.401       .  A
C979        H983   1.083       .  S
C980        H984   1.082       .  S
C985        C986   1.409       .  A
C985        C990   1.401       .  A
C985        H995   1.082       .  S
C986        C991   1.495       .  S
C986        C987   1.408       .  A
C987        C988   1.400       .  A
C987        H992   1.082       .  S
C988        C989   1.404       .  A
C988        H993   1.083       .  S
C989        C990   1.404       .  A
C990        H994   1.083       .  S
C991        C996   1.407       .  A
C991       C1000   1.410       .  A
C996        C997   1.399       .  A
C996       H1001   1.083       .  S
C997        C998   1.405       .  A
C997       H1002   1.083       .  S
C998        C999   1.404       .  A
C999       C1000   1.404       .  A
C999       H1003   1.083       .  S
C1000      H1004   1.083       .  S
