geometry optimzed in LAMMPS
_audit_creation_date              2020-11-30 
_audit_creation_method            'lammps2cif' 
_symmetry_space_group_name_H-M    'P1' 
_symmetry_Int_Tables_number       1 
_symmetry_cell_setting            triclinic 
loop_ 
_symmetry_equiv_pos_as_xyz 
  x,y,z 
_cell_length_a                    33.39234225 
_cell_length_b                    33.1643911892457 
_cell_length_c                    36.18479513988016 
_cell_angle_alpha                 89.97559305008289 
_cell_angle_beta                  89.79246480825947 
_cell_angle_gamma                 120.59884336562754 
loop_ 
_atom_site_label 
_atom_site_type_symbol 
_atom_site_fract_x 
_atom_site_fract_y 
_atom_site_fract_z 
_atom_site_charge 
O1          O  0.46684705  0.99053835  0.33377363    -0.80700
O2          O  0.53647253  0.98019921  0.18418270    -0.80700
O3          O  0.39814295  0.96914046  0.22966688    -0.80700
O4          O  0.52746861  0.93496447  0.30215338    -0.80700
O5          O  0.45244952  0.95975727  0.20202393    -0.80800
O6          O  0.54788418  0.99204595  0.34203302    -0.80700
O7          O  0.52379932  0.92866845  0.22666047    -0.80700
O8          O  0.43268883  0.94057257  0.28757455    -0.80700
C9          C  0.43507867  0.95084420  0.32162140     1.09000
C10         C  0.52931602  0.94046875  0.19298481     1.08900
C11         C  0.41058958  0.95244051  0.20339879     1.09000
C12         C  0.53749205  0.95015568  0.33464644     1.08900
O13         O  0.59444283  0.07844654  0.29799832    -0.80700
O14         O  0.51278128  0.03989133  0.16754432    -0.80800
O15         O  0.44260748  0.03074140  0.28700876    -0.80700
O16         O  0.60727601  0.02028731  0.22278307    -0.80700
O17         O  0.58263728  0.07006801  0.21705998    -0.80700
O18         O  0.51549351  0.08061559  0.29425204    -0.80700
O19         O  0.61430102  0.02507824  0.29758674    -0.80600
O20         O  0.47606619  0.04943344  0.21454469    -0.80700
Co21       Co  0.53119317  0.03507140  0.31431872     1.51500
Co22       Co  0.51805022  0.01827926  0.21332324     1.51700
Co23       Co  0.45736768  0.99270501  0.25166950     1.51600
Co24       Co  0.56474123  0.97775505  0.26260931     1.51500
O25         O  0.52096979  0.00401001  0.26518005    -1.42600
C26         C  0.62411793  0.06688729  0.30440332     1.08900
C27         C  0.48712612  0.05439981  0.17965882     1.09000
C28         C  0.47399311  0.07022840  0.29881703     1.09000
C29         C  0.61151408  0.05744041  0.20873491     1.08900
O30         O  0.97455207  0.51150295  0.33969032    -0.80700
O31         O  0.92669319  0.41616179  0.21067534    -0.80700
O32         O  0.98481937  0.57403940  0.21767807    -0.80700
O33         O  0.98560176  0.40633021  0.28739547    -0.80700
O34         O  0.93020627  0.50173920  0.21297420    -0.80800
O35         O  0.93983248  0.43565425  0.29441712    -0.80700
O36         O  0.97913771  0.39532489  0.21251593    -0.80700
O37         O  0.96407254  0.54244649  0.28891129    -0.80700
C38         C  0.95489798  0.53044767  0.32338312     1.09000
C39         C  0.93971677  0.38781512  0.20183220     1.08900
C40         C  0.94583392  0.54413577  0.20466157     1.09000
C41         C  0.94950306  0.40408025  0.30166439     1.08900
O42         O  0.03132441  0.48012719  0.32284563    -0.80700
O43         O  0.01659737  0.54144593  0.17159952    -0.80800
O44         O  0.04693327  0.61946100  0.27289520    -0.80700
O45         O  0.06828113  0.47692751  0.20229683    -0.80700
O46         O  0.00939980  0.45927958  0.16521375    -0.80700
O47         O  0.05446634  0.56541403  0.30264486    -0.80700
O48         O  0.07885419  0.48737189  0.27851613    -0.80600
O49         O  0.07008093  0.57840060  0.21494200    -0.80700
Co50       Co  0.99411106  0.50017159  0.29430200     1.51500
Co51       Co  0.97070752  0.47959067  0.19324938     1.51700
Co52       Co  0.02021296  0.55785918  0.25292361     1.51600
Co53       Co  0.02756435  0.44520091  0.24522695     1.51500
O54         O  0.00437337  0.49168319  0.24169497    -1.42600
C55         C  0.06903614  0.48359318  0.31249016     1.08900
C56         C  0.05766957  0.57231977  0.18103476     1.09000
C57         C  0.06389898  0.60821244  0.29954419     1.09000
C58         C  0.05017835  0.46660899  0.17039765     1.08900
O59         O  0.50031447  0.41884570  0.28617689    -0.80700
O60         O  0.55035148  0.53629096  0.16723143    -0.80700
O61         O  0.45472410  0.40241371  0.21286965    -0.80700
O62         O  0.61508642  0.57360056  0.28249924    -0.80700
O63         O  0.52304189  0.44983053  0.19170386    -0.80800
O64         O  0.59033023  0.49922031  0.29360301    -0.80700
O65         O  0.60616451  0.56889545  0.20838861    -0.80700
O66         O  0.42886013  0.40076087  0.27828137    -0.80700
C67         C  0.45741154  0.39152627  0.29287710     1.09000
C68         C  0.59298849  0.55710170  0.17544021     1.08900
C69         C  0.48790706  0.40956716  0.19144287     1.09000
C70         C  0.62106044  0.54228815  0.29693159     1.08900
O71         O  0.54896964  0.54551103  0.32861947    -0.80700
O72         O  0.45945852  0.46473689  0.15636336    -0.80800
O73         O  0.42311051  0.47820859  0.27298095    -0.80700
O74         O  0.53944112  0.59681775  0.21296471    -0.80700
O75         O  0.47272329  0.53361763  0.20291110    -0.80700
O76         O  0.46287007  0.47362996  0.31981177    -0.80700
O77         O  0.53939127  0.59036580  0.28937459    -0.80600
O78         O  0.40984711  0.44616745  0.20219413    -0.80700
Co79       Co  0.52559745  0.48472072  0.30271325     1.51500
Co80       Co  0.49830469  0.49126018  0.19947985     1.51700
Co81       Co  0.45425621  0.45378890  0.24295265     1.51600
Co82       Co  0.57082907  0.57739889  0.24838866     1.51500
O83         O  0.52310101  0.50705635  0.24995099    -1.42600
C84         C  0.54430773  0.58039026  0.32217816     1.08900
C85         C  0.41773481  0.44647368  0.16758959     1.09000
C86         C  0.42865481  0.47653561  0.30725465     1.09000
C87         C  0.50018519  0.57662163  0.19791914     1.08900
O88         O  0.86743830  0.60797526  0.43884404    -0.80700
O89         O  0.79933926  0.66887745  0.97949995    -0.80700
O90         O  0.76454128  0.57852629  0.43356792    -0.80700
O91         O  0.89797633  0.68508122  0.04719504    -0.80700
O92         O  0.71549834  0.60005961  0.45367774    -0.80800
O93         O  0.90704702  0.67820010  0.48815534    -0.80700
O94         O  0.81249776  0.68386121  0.03883842    -0.80700
O95         O  0.81345089  0.53542249  0.44213291    -0.80700
C96         C  0.84738281  0.56772935  0.42498725     1.09000
C97         C  0.80179775  0.69324871  0.00746330     1.08900
C98         C  0.73168924  0.58720770  0.42725943     1.09000
C99         C  0.92249815  0.69782030  0.01752622     1.08900
O100        O  0.90535921  0.61137360  0.04442473    -0.80700
O101        O  0.71036473  0.52956464  0.99884333    -0.80800
O102        O  0.78700563  0.51153767  0.51688578    -0.80700
O103        O  0.76447736  0.59121002  0.07133756    -0.80700
O104        O  0.72908419  0.60996017  0.03032638    -0.80700
O105        O  0.85911683  0.54073161  0.49741740    -0.80700
O106        O  0.84319950  0.59089495  0.07807746    -0.80600
O107        O  0.72651502  0.49124862  0.45983263    -0.80700
Co108      Co  0.88106789  0.61061854  0.49240459     1.51500
Co109      Co  0.76111093  0.60033399  0.98723708     1.51700
Co110      Co  0.77609851  0.54705469  0.47869779     1.51600
Co111      Co  0.82890065  0.63580024  0.05604806     1.51500
O112        O  0.81843490  0.60177431  0.00723205    -1.42600
C113        C  0.88184111  0.59376061  0.07382615     1.08900
C114        C  0.69798682  0.49473038  0.48032452     1.09000
C115        C  0.82150544  0.50640920  0.51079236     1.09000
C116        C  0.73055704  0.59573677  0.06242188     1.08900
O117        O  0.75584643  0.15348323  0.44249769    -0.80700
O118        O  0.87330978  0.22082354  0.98168745    -0.80700
O119        O  0.82192893  0.26689986  0.43886871    -0.80700
O120        O  0.79339991  0.12207784  0.05287870    -0.80700
O121        O  0.89201056  0.31019654  0.46305610    -0.80800
O122        O  0.77901466  0.11210147  0.49556095    -0.80700
O123        O  0.87529063  0.20758883  0.04114041    -0.80700
O124        O  0.73208746  0.20356375  0.43923707    -0.80700
C125        C  0.73791984  0.17225636  0.42402675     1.09000
C126        C  0.89389650  0.21518915  0.00878213     1.08900
C127        C  0.86544163  0.29855528  0.43529236     1.09000
C128        C  0.78575913  0.09684969  0.02430666     1.08900
O129        O  0.71001530  0.10805444  0.04463158    -0.80700
O130        O  0.82280381  0.30616546  0.00630499    -0.80800
O131        O  0.71911207  0.22215014  0.51614666    -0.80700
O132        O  0.82329437  0.25227834  0.07126223    -0.80700
O133        O  0.88471221  0.28762678  0.03744221    -0.80700
O134        O  0.68419241  0.15196360  0.49166901    -0.80700
O135        O  0.74831326  0.17159943  0.07826145    -0.80600
O136        O  0.76471125  0.29437175  0.46768268    -0.80700
Co137      Co  0.73576088  0.13597081  0.49375745     1.51500
Co138      Co  0.84437267  0.25840583  0.99213142     1.51700
Co139      Co  0.77211587  0.24325351  0.48176452     1.51600
Co140      Co  0.80922408  0.18951153  0.05844593     1.51500
O141        O  0.78758544  0.19863354  0.00903760    -1.42600
C142        C  0.71429252  0.13106197  0.07397468     1.08900
C143        C  0.79659347  0.32149260  0.48982355     1.09000
C144        C  0.68185715  0.18536568  0.50713322     1.09000
C145        C  0.86422829  0.28471822  0.06763180     1.08900
O146        O  0.26519303  0.84757632  0.43959848    -0.80700
O147        O  0.13915119  0.77510695  0.98776998    -0.80700
O148        O  0.19479333  0.74246237  0.43508700    -0.80700
O149        O  0.22135040  0.87232861  0.05325983    -0.80700
O150        O  0.12472116  0.69509759  0.45947375    -0.80800
O151        O  0.23478062  0.88529265  0.49070732    -0.80700
O152        O  0.14256442  0.78472062  0.04814605    -0.80700
O153        O  0.29027689  0.79947024  0.43913431    -0.80700
C154        C  0.28989829  0.83370210  0.42460435     1.09000
C155        C  0.12121130  0.77889695  0.01769059     1.08900
C156        C  0.15140948  0.71029603  0.43139256     1.09000
C157        C  0.22624998  0.89588270  0.02376985     1.08900
O158        O  0.30384193  0.89015118  0.04465459    -0.80700
O159        O  0.19499457  0.69087483  0.99811856    -0.80800
O160        O  0.29391203  0.77529313  0.51319719    -0.80700
O161        O  0.19653643  0.74265415  0.07264861    -0.80700
O162        O  0.13629785  0.70576125  0.03692486    -0.80700
O163        O  0.33188415  0.84898757  0.49437164    -0.80700
O164        O  0.27221716  0.82567315  0.07708116    -0.80600
O165        O  0.25059278  0.71113340  0.45847648    -0.80700
Co166      Co  0.28047872  0.86509509  0.49172904     1.51500
Co167      Co  0.17182230  0.73922523  0.99089090     1.51700
Co168      Co  0.24352338  0.75959766  0.47768419     1.51600
Co169      Co  0.20935083  0.80544522  0.06015679     1.51500
O170        O  0.22853620  0.79789094  0.00883884    -1.42600
C171        C  0.30276654  0.86792103  0.07353951     1.08900
C172        C  0.21969533  0.68143505  0.47972260     1.09000
C173        C  0.33194978  0.81357517  0.50856309     1.09000
C174        C  0.15698644  0.70795449  0.06688488     1.08900
O175        O  0.54357865  0.84984438  0.50291174    -0.80700
O176        O  0.58619073  0.69679673  0.05760624    -0.80700
O177        O  0.48094838  0.70997214  0.47074661    -0.80700
O178        O  0.58773286  0.82694138  0.08540668    -0.80700
O179        O  0.50736141  0.68314192  0.01468381    -0.80800
O180        O  0.61318704  0.88944858  0.05110026    -0.80700
O181        O  0.57499933  0.74636298  0.08588606    -0.80700
O182        O  0.50565088  0.77704079  0.52308682    -0.80700
C183        C  0.50685829  0.81531426  0.51662930     1.09000
C184        C  0.56981568  0.70635337  0.08480689     1.08900
C185        C  0.47508029  0.67802366  0.49297266     1.09000
C186        C  0.59311131  0.86648910  0.08010535     1.08900
O187        O  0.67641655  0.88411552  0.49988972    -0.80700
O188        O  0.57048606  0.68706186  0.47588980    -0.80800
O189        O  0.53406984  0.79892300  0.44842392    -0.80700
O190        O  0.67079256  0.78152461  0.04899717    -0.80700
O191        O  0.64179880  0.74639896  0.99602196    -0.80700
O192        O  0.60808042  0.84825666  0.44861354    -0.80700
O193        O  0.68170344  0.87178984  0.05663636    -0.80600
O194        O  0.56727129  0.74021733  0.44482567    -0.80700
Co195      Co  0.61019643  0.86396543  0.50112339     1.51500
Co196      Co  0.57977266  0.72785507  0.01400581     1.51700
Co197      Co  0.53848884  0.75859904  0.48731720     1.51600
Co198      Co  0.62713887  0.80553999  0.06509449     1.51500
O199        O  0.59656063  0.79697788  0.01366138    -1.42600
C200        C  0.69732226  0.89780056  0.02803719     1.08900
C201        C  0.56809408  0.70224451  0.44521386     1.09000
C202        C  0.56903109  0.83367057  0.43402102     1.09000
C203        C  0.67454863  0.76280090  0.01904682     1.08900
O204        O  0.09947216  0.39629447  0.45550086    -0.80700
O205        O  0.21940117  0.32830445  0.96903856    -0.80700
O206        O  0.24737137  0.39665333  0.41897626    -0.80700
O207        O  0.11571578  0.31196884  0.03111683    -0.80700
O208        O  0.30561655  0.40252384  0.45194901    -0.80800
O209        O  0.11562409  0.32719118  0.47484549    -0.80700
O210        O  0.19862946  0.31027301  0.02680900    -0.80700
O211        O  0.15431920  0.39172443  0.42427920    -0.80700
C212        C  0.12193940  0.40234634  0.42542094     1.09000
C213        C  0.21169263  0.30141336  0.99641365     1.08900
C214        C  0.29063345  0.40760097  0.42111530     1.09000
C215        C  0.09424149  0.30130855  0.00060716     1.08900
O216        O  0.10899015  0.38533269  0.02962286    -0.80700
O217        O  0.29894356  0.46133832  0.99843010    -0.80800
O218        O  0.20718099  0.48584048  0.45010194    -0.80700
O219        O  0.24475446  0.39831638  0.06484137    -0.80700
O220        O  0.28325765  0.38151535  0.02512228    -0.80700
O221        O  0.16803032  0.46136965  0.50033570    -0.80700
O222        O  0.16646612  0.40159722  0.06695811    -0.80600
O223        O  0.28534847  0.48750331  0.44909908    -0.80700
Co224      Co  0.14547975  0.39549579  0.48509919     1.51500
Co225      Co  0.25723474  0.39611362  0.98121461     1.51700
Co226      Co  0.22084861  0.43526802  0.44172881     1.51600
Co227      Co  0.18285176  0.35839474  0.04368710     1.51500
O228        O  0.20460928  0.40136514  0.99716421    -1.42600
C229        C  0.12932406  0.40125846  0.06027688     1.08900
C230        C  0.31016429  0.49610677  0.47712442     1.09000
C231        C  0.19110590  0.49423713  0.47834203     1.09000
C232        C  0.27819061  0.39228184  0.05751257     1.08900
O233        O  0.47291776  0.15345847  0.48695965    -0.80700
O234        O  0.41203132  0.29034985  0.03491134    -0.80700
O235        O  0.52740492  0.29285518  0.45340374    -0.80700
O236        O  0.42012165  0.16822856  0.07839021    -0.80700
O237        O  0.49063420  0.30275177  0.00260761    -0.80800
O238        O  0.39849154  0.10720098  0.04240281    -0.80700
O239        O  0.42851423  0.24976063  0.07195322    -0.80700
O240        O  0.50854623  0.22651951  0.50659466    -0.80700
C241        C  0.50870693  0.18881332  0.50106417     1.09000
C242        C  0.42642639  0.28568158  0.06605376     1.08900
C243        C  0.52775216  0.31984018  0.47816427     1.09000
C244        C  0.41594674  0.12909712  0.07235349     1.08900
O245        O  0.33712168  0.11114396  0.48580134    -0.80700
O246        O  0.42712524  0.31128310  0.45755050    -0.80800
O247        O  0.47806047  0.20329100  0.43249181    -0.80700
O248        O  0.33475929  0.20785940  0.03835830    -0.80700
O249        O  0.35265045  0.22375478  0.97944040    -0.80700
O250        O  0.40500926  0.15079847  0.43272704    -0.80700
O251        O  0.32754101  0.12007858  0.04962453    -0.80600
O252        O  0.43867496  0.25793032  0.43126468    -0.80700
Co253      Co  0.40459954  0.13544216  0.48590446     1.51500
Co254      Co  0.41993560  0.25817061  0.99001663     1.51700
Co255      Co  0.47188013  0.24167598  0.47245050     1.51600
Co256      Co  0.37978235  0.18760215  0.05644904     1.51500
O257        O  0.41264268  0.19625264  0.00692164    -1.42600
C258        C  0.31232435  0.09421601  0.02108262     1.08900
C259        C  0.43176652  0.29279293  0.42837450     1.09000
C260        C  0.44376537  0.16992593  0.41633765     1.09000
C261        C  0.32525134  0.21668327  0.00613587     1.08900
C262        C  0.28603062  0.22605486  0.00116084    -0.06000
C263        C  0.26300837  0.22936519  0.03250160    -0.33400
C264        C  0.23509678  0.24973011  0.03064681     0.35800
C265        C  0.22904427  0.26746186  0.99669954    -0.06400
C266        C  0.24838772  0.25994027  0.96464473    -0.33300
C267        C  0.27598050  0.23892862  0.96658042     0.35700
H268        H  0.26967450  0.21851938  0.55690671     0.16100
O269        O  0.21631670  0.25341235  0.56185923    -0.60800
H270        H  0.24429152  0.27267298  0.93817845     0.16100
O271        O  0.29503797  0.23367825  0.93463612    -0.60900
H272        H  0.27222044  0.20191523  0.92558377     0.43100
H273        H  0.24160783  0.28038511  0.57530487     0.43100
C274        C  0.43148198  0.63256799  0.49086990    -0.06000
C275        C  0.41182345  0.61691771  0.45588401    -0.33400
C276        C  0.37251492  0.57283949  0.45125201     0.35800
C277        C  0.35160505  0.54320236  0.48206835    -0.06400
C278        C  0.37424370  0.55396941  0.01543692    -0.33300
C279        C  0.41398242  0.59836150  0.02024826     0.35700
H280        H  0.42795335  0.63842212  0.43160056     0.16100
O281        O  0.35645141  0.55816159  0.41608593    -0.60800
H282        H  0.36251942  0.52904089  0.03804978     0.16100
O283        O  0.43679328  0.60927013  0.05338379    -0.60900
H284        H  0.45427736  0.59248637  0.05314614     0.43100
H285        H  0.33726510  0.57230996  0.41020519     0.43100
C286        C  0.23239956  0.94386596  0.02499131    -0.06000
C287        C  0.24459692  0.96931276  0.05822281    -0.33400
C288        C  0.26636509  0.01858161  0.05806279     0.35800
C289        C  0.27596455  0.04334555  0.02419716    -0.06400
C290        C  0.25792580  0.01721223  0.99166042    -0.33300
C291        C  0.23621684  0.96824545  0.99183771     0.35700
H292        H  0.24103820  0.95153535  0.08419458     0.16100
O293        O  0.28252201  0.04211877  0.09079455    -0.60800
H294        H  0.26374999  0.03497884  0.96533274     0.16100
O295        O  0.22263579  0.94507098  0.95873192    -0.60900
H296        H  0.18943965  0.93565631  0.95614563     0.43100
H297        H  0.25570714  0.04283295  0.10180730     0.43100
C298        C  0.19988601  0.54233106  0.48392076    -0.06000
C299        C  0.23904179  0.57914375  0.46652877    -0.33400
C300        C  0.24662022  0.62448648  0.46621639     0.35800
C301        C  0.21475961  0.63443913  0.48380708    -0.06400
C302        C  0.17452747  0.59509756  0.99802882    -0.33300
C303        C  0.16673048  0.54929796  0.99760380     0.35700
H304        H  0.26370401  0.57260083  0.45212660     0.16100
O305        O  0.28531014  0.65865661  0.44814656    -0.60800
H306        H  0.14714510  0.60077773  0.00797028     0.16100
O307        O  0.12463927  0.51286378  0.00928345    -0.60900
H308        H  0.12702679  0.51247591  0.03655900     0.43100
H309        H  0.27673554  0.65491439  0.42162101     0.43100
C310        C  0.37707775  0.81568900  0.51585328    -0.06000
C311        C  0.41933112  0.85680795  0.50751312    -0.33400
C312        C  0.46196984  0.85802092  0.50909325     0.35800
C313        C  0.46346665  0.81778575  0.52002369    -0.06400
C314        C  0.42145493  0.77743559  0.53009656    -0.33300
C315        C  0.37875530  0.77591835  0.52774921     0.35700
H316        H  0.41935490  0.88787908  0.49821943     0.16100
O317        O  0.50170652  0.89849840  0.49884133    -0.60800
H318        H  0.42315945  0.74792020  0.04556048     0.16100
O319        O  0.34058785  0.73722115  0.04583415    -0.60900
H320        H  0.33178055  0.71439194  0.02538727     0.43100
H321        H  0.50279888  0.89731512  0.47147086     0.43100
C322        C  0.77661745  0.04792455  0.02802955    -0.06000
C323        C  0.75797266  0.02343026  0.06137816    -0.33400
C324        C  0.73637294  0.97433808  0.06306486     0.35800
C325        C  0.73343938  0.94854537  0.03104310    -0.06400
C326        C  0.75663943  0.97356928  0.99887701    -0.33300
C327        C  0.77805033  0.02261665  0.99721380     0.35700
H328        H  0.75628966  0.04183796  0.08551376     0.16100
O329        O  0.71783130  0.95346544  0.59760620    -0.60800
H330        H  0.75517603  0.95474927  0.97396792     0.16100
O331        O  0.79741155  0.04503259  0.96446601    -0.60900
H332        H  0.83079109  0.05493735  0.96626000     0.43100
H333        H  0.74193124  0.94991907  0.61061024     0.43100
C334        C  0.94328947  0.22608729  0.00380070    -0.06000
C335        C  0.96860397  0.22449873  0.03422081    -0.33400
C336        C  0.01731378  0.24461770  0.03249988     0.35800
C337        C  0.04243750  0.26781717  0.00002216    -0.06400
C338        C  0.01725450  0.26320147  0.47045241    -0.33300
C339        C  0.96843483  0.24240104  0.47166246     0.35700
H340        H  0.95098314  0.20981743  0.06023682     0.16100
O341        O  0.04017211  0.24417581  0.06375987    -0.60800
H342        H  0.03509307  0.27766413  0.44446707     0.16100
O343        O  0.94572652  0.24065415  0.43967426    -0.60900
H344        H  0.93996978  0.21165722  0.42706215     0.43100
H345        H  0.04291475  0.21590818  0.06144752     0.43100
C346        C  0.63636846  0.18408869  0.51045265    -0.06000
C347        C  0.63631080  0.22582126  0.51755159    -0.33400
C348        C  0.59516554  0.22761987  0.51609988     0.35800
C349        C  0.55223681  0.18703648  0.50746385    -0.06400
C350        C  0.55198940  0.14483051  0.50200467    -0.33300
C351        C  0.59319531  0.14306562  0.50359111     0.35700
H352        H  0.66872326  0.25798314  0.52289081     0.16100
O353        O  0.59809420  0.27005137  0.52102617    -0.60800
H354        H  0.51976674  0.11299554  0.49551506     0.16100
O355        O  0.59080119  0.10114477  0.49723456    -0.60900
H356        H  0.58832380  0.08743737  0.52208273     0.43100
H357        H  0.59710040  0.27362764  0.54819046     0.43100
C358        C  0.97391929  0.73150005  0.01795226    -0.06000
C359        C  0.99824167  0.74105681  0.05137925    -0.33400
C360        C  0.04658068  0.75931414  0.05183606     0.35800
C361        C  0.07219806  0.76935669  0.01832434    -0.06400
C362        C  0.04855169  0.77141717  0.48483938    -0.33300
C363        C  0.00017563  0.75332992  0.48488869     0.35700
H364        H  0.97932674  0.73068587  0.07733516     0.16100
O365        O  0.06767426  0.76417493  0.08533275    -0.60800
H366        H  0.06710014  0.78091612  0.45870789     0.16100
O367        O  0.97834585  0.74891100  0.45183001    -0.60900
H368        H  0.98155880  0.77989977  0.44732990     0.43100
H369        H  0.06352596  0.73301966  0.09084462     0.43100
C370        C  0.77984772  0.72324442  0.00631797    -0.06000
C371        C  0.75001135  0.71775528  0.97693753    -0.33400
C372        C  0.71759223  0.73279764  0.97978151     0.35800
C373        C  0.71471041  0.75507413  0.01235706    -0.06400
C374        C  0.74759197  0.76467627  0.04023584    -0.33300
C375        C  0.77950329  0.74878453  0.03761736     0.35700
H376        H  0.74913212  0.69844240  0.95251663     0.16100
O377        O  0.68762692  0.72365185  0.95089846    -0.60800
H378        H  0.74469967  0.78088669  0.56802641     0.16100
O379        O  0.80600241  0.75494409  0.56884580    -0.60900
H380        H  0.78471679  0.73039915  0.58654702     0.43100
H381        H  0.66267379  0.69037274  0.95404741     0.43100
C382        C  0.80328458  0.36815797  0.49937837    -0.06000
C383        C  0.76473997  0.37331228  0.50596673    -0.33400
C384        C  0.77032276  0.41761896  0.51293752     0.35800
C385        C  0.81524265  0.45836917  0.51230676    -0.06400
C386        C  0.85443137  0.45102603  0.00695817    -0.33300
C387        C  0.84829736  0.40636871  0.00137415     0.35700
H388        H  0.72998756  0.34286911  0.50541218     0.16100
O389        O  0.73140723  0.42063515  0.51939784    -0.60800
H390        H  0.88879198  0.48138922  0.00297822     0.16100
O391        O  0.88586124  0.40251143  0.99133314    -0.60900
H392        H  0.90049289  0.40178873  0.01493724     0.43100
H393        H  0.71469643  0.41310151  0.49549957     0.43100
C394        C  0.56825187  0.36712165  0.48145860    -0.06000
C395        C  0.58581496  0.39291102  0.44885263    -0.33400
C396        C  0.62628504  0.43642518  0.44920852     0.35800
C397        C  0.65044003  0.45475553  0.48240436    -0.06400
C398        C  0.62767163  0.43155476  0.01626637    -0.33300
C399        C  0.58650472  0.38745972  0.01714579     0.35700
H400        H  0.56844730  0.37878939  0.42273935     0.16100
O401        O  0.64315582  0.46004973  0.41652460    -0.60800
H402        H  0.64355419  0.44918075  0.04193336     0.16100
O403        O  0.56652251  0.36759398  0.05047047    -0.60900
H404        H  0.58412835  0.35293048  0.05955854     0.43100
H405        H  0.62877527  0.47974247  0.41406227     0.43100
C406        C  0.44060335  0.31959951  0.09676632    -0.06000
C407        C  0.47769455  0.36573088  0.09288515    -0.33400
C408        C  0.49706237  0.39450872  0.12414922     0.35800
C409        C  0.47872528  0.37724480  0.16001097    -0.06400
C410        C  0.44194555  0.33100611  0.16345415    -0.33300
C411        C  0.42296099  0.30253019  0.13245414     0.35700
H412        H  0.49227760  0.37913587  0.06576231     0.16100
O413        O  0.53177135  0.44018924  0.11898103    -0.60800
H414        H  0.42648494  0.31731808  0.19031244     0.16100
O415        O  0.38669573  0.25757489  0.13733805    -0.60900
H416        H  0.35823466  0.25943295  0.13399822     0.43100
H417        H  0.56092861  0.43923271  0.11731665     0.43100
C418        C  0.43014728  0.31088614  0.39134337    -0.06000
C419        C  0.45462535  0.30514763  0.36201813    -0.33400
C420        C  0.46106666  0.32862697  0.32839715     0.35800
C421        C  0.44229560  0.35762293  0.32349851    -0.06400
C422        C  0.41401897  0.35979746  0.35136726    -0.33300
C423        C  0.40813826  0.33701358  0.38529488     0.35700
H424        H  0.47123878  0.28464213  0.36585407     0.16100
O425        O  0.48738562  0.32463098  0.30108046    -0.60800
H426        H  0.39905083  0.38187222  0.34789681     0.16100
O427        O  0.38318950  0.34271294  0.41296297    -0.60900
H428        H  0.35078440  0.32788675  0.40380483     0.43100
H429        H  0.46503574  0.29741521  0.28611796     0.43100
C430        C  0.62784124  0.56719931  0.14629208    -0.06000
C431        C  0.61826303  0.57203627  0.10926323    -0.33400
C432        C  0.65106569  0.58115608  0.08134781     0.35800
C433        C  0.69407240  0.58530638  0.09034297    -0.06400
C434        C  0.70299998  0.57963688  0.12732454    -0.33300
C435        C  0.67060579  0.57093194  0.15508973     0.35700
H436        H  0.58541525  0.56905498  0.10196240     0.16100
O437        O  0.64066189  0.58591396  0.04556479    -0.60800
H438        H  0.73555496  0.58224763  0.13505840     0.16100
O439        O  0.68043064  0.56417546  0.19056996    -0.60900
H440        H  0.69998079  0.59604695  0.20088404     0.43100
H441        H  0.62566884  0.55392548  0.03503566     0.43100
C442        C  0.65789867  0.55850031  0.32542318    -0.06000
C443        C  0.67799283  0.53188808  0.33544201    -0.33400
C444        C  0.70685115  0.54421332  0.36661964     0.35800
C445        C  0.71254947  0.58114667  0.38975739    -0.06400
C446        C  0.69490658  0.60920453  0.37856419    -0.33300
C447        C  0.66917946  0.59925047  0.34625947     0.35700
H448        H  0.67051895  0.50108460  0.31967353     0.16100
O449        O  0.72585020  0.51741585  0.37592850    -0.60800
H450        H  0.69993418  0.63835745  0.39553105     0.16100
O451        O  0.65188758  0.62765306  0.33729255    -0.60900
H452        H  0.67689971  0.65374200  0.32283175     0.43100
H453        H  0.75740291  0.53365859  0.36465852     0.43100
C454        C  0.49439647  0.60224262  0.16743693    -0.06000
C455        C  0.50713869  0.64889359  0.17407183    -0.33400
C456        C  0.52949260  0.68298419  0.14665708     0.35800
C457        C  0.54090203  0.67068049  0.11252747    -0.06400
C458        C  0.52369023  0.62338224  0.10469272    -0.33300
C459        C  0.49873470  0.58911306  0.13125624     0.35700
H460        H  0.50438211  0.65978394  0.20173873     0.16100
O461        O  0.54396516  0.72873761  0.15489169    -0.60800
H462        H  0.53049957  0.61286723  0.07815296     0.16100
O463        O  0.48448654  0.54362320  0.12280812    -0.60900
H464        H  0.45284310  0.53069730  0.11246284     0.43100
H465        H  0.51760736  0.73291575  0.14790739     0.43100
C466        C  0.54928586  0.61154451  0.35344556    -0.06000
C467        C  0.55014746  0.65390563  0.34720775    -0.33400
C468        C  0.55776679  0.68498244  0.37636727     0.35800
C469        C  0.56464629  0.67395530  0.41238735    -0.06400
C470        C  0.56419137  0.63175082  0.41840497    -0.33300
C471        C  0.55628362  0.60070165  0.38976574     0.35700
H472        H  0.54522587  0.66320860  0.31960545     0.16100
O473        O  0.55756026  0.72546434  0.36938835    -0.60800
H474        H  0.56924780  0.62193404  0.44581386     0.16100
O475        O  0.55639777  0.56026964  0.39781468    -0.60900
H476        H  0.52383926  0.53704392  0.40476644     0.43100
H477        H  0.59060587  0.74955879  0.36487151     0.43100
C478        C  0.31124086  0.39886788  0.08676893    -0.06000
C479        C  0.30206700  0.40730433  0.12298712    -0.33400
C480        C  0.33541748  0.42024284  0.15045884     0.35800
C481        C  0.37915961  0.42615121  0.14141870    -0.06400
C482        C  0.38651366  0.41314682  0.10636191    -0.33300
C483        C  0.35271099  0.39904918  0.07913772     0.35700
H484        H  0.26956136  0.40546282  0.12988852     0.16100
O485        O  0.32593328  0.43000041  0.18517414    -0.60800
H486        H  0.41914280  0.41518053  0.09964938     0.16100
O487        O  0.36185276  0.38824877  0.04473257    -0.60900
H488        H  0.35238716  0.35462876  0.04615576     0.43100
H489        H  0.30725578  0.39912880  0.19745740     0.43100
C490        C  0.39189769  0.46969333  0.33352058    -0.06000
C491        C  0.40465618  0.48180039  0.37034579    -0.33400
C492        C  0.37181661  0.46202825  0.39857117     0.35800
C493        C  0.32444783  0.43049926  0.39032837    -0.06400
C494        C  0.31073802  0.42252330  0.35309189    -0.33300
C495        C  0.34423828  0.44176829  0.32463637     0.35700
H496        H  0.44097547  0.50406855  0.37759413     0.16100
O497        O  0.38675144  0.47356726  0.43435266    -0.60800
H498        H  0.27450386  0.39947377  0.34610324     0.16100
O499        O  0.33047399  0.42934460  0.28871629    -0.60900
H500        H  0.32651603  0.45490288  0.27866668     0.43100
H501        H  0.40077717  0.45430434  0.44069651     0.43100
C502        C  0.92811902  0.55707735  0.17196833    -0.06000
C503        C  0.95996715  0.59497133  0.14969747    -0.33400
C504        C  0.94626365  0.60540429  0.11624480     0.35800
C505        C  0.89964197  0.57889783  0.10508724    -0.06400
C506        C  0.86787530  0.54077195  0.12703710    -0.33300
C507        C  0.88188897  0.52946332  0.15996959     0.35700
H508        H  0.99609704  0.61615846  0.15775510     0.16100
O509        O  0.97809437  0.64309244  0.09577628    -0.60800
H510        H  0.83178569  0.51989498  0.11875661     0.16100
O511        O  0.85009283  0.49154159  0.18022355    -0.60900
H512        H  0.83587853  0.50403218  0.19744113     0.43100
H513        H  0.99617464  0.63180181  0.08196067     0.43100
C514        C  0.92076143  0.53713392  0.34391848    -0.06000
C515        C  0.92144530  0.57973074  0.34154111    -0.33400
C516        C  0.89531710  0.58962700  0.36645096     0.35800
C517        C  0.86780627  0.55632474  0.39354892    -0.06400
C518        C  0.86417475  0.51230473  0.39353022    -0.33300
C519        C  0.89063436  0.50275249  0.36923476     0.35700
H520        H  0.94432310  0.60633994  0.32194870     0.16100
O521        O  0.89839356  0.63243475  0.36508289    -0.60800
H522        H  0.84309495  0.48610480  0.41406574     0.16100
O523        O  0.88847832  0.46041440  0.37162494    -0.60900
H524        H  0.85988859  0.43820527  0.35814784     0.43100
H525        H  0.87136413  0.62732988  0.35010497     0.43100
C526        C  0.91812723  0.35693305  0.16958276    -0.06000
C527        C  0.94616843  0.34707639  0.14635871    -0.33400
C528        C  0.93055874  0.32671152  0.11158292     0.35800
C529        C  0.88596326  0.31490913  0.09982516    -0.06400
C530        C  0.85762226  0.32389111  0.12317771    -0.33300
C531        C  0.87347715  0.34511471  0.15754826     0.35700
H532        H  0.98112334  0.35674648  0.15448731     0.16100
O533        O  0.95874143  0.31769909  0.08971633    -0.60800
H534        H  0.82260157  0.31385693  0.11485081     0.16100
O535        O  0.84482448  0.35354210  0.17936077    -0.60900
H536        H  0.84654843  0.38200511  0.16879806     0.39500
H537        H  0.95178622  0.28594614  0.09700643     0.43100
C538        C  0.92459515  0.37017461  0.33225896    -0.06000
C539        C  0.88022146  0.36045831  0.34348754    -0.33400
C540        C  0.85987739  0.33568544  0.37633665     0.35800
C541        C  0.88408959  0.32050810  0.39882326    -0.06400
C542        C  0.92771220  0.32889688  0.38719754    -0.33300
C543        C  0.94773946  0.35284919  0.35412626     0.35700
H544        H  0.86188645  0.37349259  0.32739135     0.16100
O545        O  0.81811245  0.33000377  0.38779598    -0.60800
H546        H  0.94684343  0.31758809  0.40420538     0.16100
O547        O  0.99157845  0.36216749  0.34508358    -0.60900
H548        H  0.98685330  0.33381818  0.33200951     0.43100
H549        H  0.79428969  0.30353675  0.37303396     0.43100
C550        C  0.07349809  0.45618946  0.14009095    -0.06000
C551        C  0.11468836  0.45620651  0.14757541    -0.33400
C552        C  0.13318555  0.43845970  0.12204095     0.35800
C553        C  0.11089591  0.42081341  0.08774986    -0.06400
C554        C  0.07083417  0.42256967  0.07959181    -0.33300
C555        C  0.05215846  0.44024053  0.10518548     0.35700
H556        H  0.13178297  0.46818680  0.17403721     0.16100
O557        O  0.17275039  0.43800018  0.13134456    -0.60800
H558        H  0.05330122  0.40955106  0.05340482     0.16100
O559        O  0.01138701  0.43886479  0.09670563    -0.60900
H560        H  0.01709275  0.45621269  0.07309927     0.43100
H561        H  0.16169403  0.40803201  0.14469239     0.43100
C562        C  0.11566348  0.42812518  0.39523806    -0.06000
C563        C  0.10275902  0.46104637  0.40452891    -0.33400
C564        C  0.09322581  0.48434176  0.37718814     0.35800
C565        C  0.09560656  0.47420512  0.33979614    -0.06400
C566        C  0.11273612  0.44463891  0.33034499    -0.33300
C567        C  0.12310815  0.42177914  0.35796931     0.35700
H568        H  0.09895371  0.46804241  0.43319898     0.16100
O569        O  0.07809032  0.51425672  0.38730575    -0.60800
H570        H  0.11435097  0.43616987  0.30166764     0.16100
O571        O  0.13650146  0.39042276  0.34817728    -0.60900
H572        H  0.17089841  0.40915371  0.34648828     0.43100
H573        H  0.10672204  0.54525028  0.38985382     0.43100
C574        C  0.08807453  0.60416444  0.15155249    -0.06000
C575        C  0.12655571  0.64770292  0.16053828    -0.33400
C576        C  0.15011528  0.68144025  0.13308054     0.35800
C577        C  0.13515771  0.67179708  0.09585184    -0.06400
C578        C  0.09831138  0.62751470  0.08666657    -0.33300
C579        C  0.07527090  0.59368634  0.11392793     0.35700
H580        H  0.13711229  0.65655371  0.18907140     0.16100
O581        O  0.18660783  0.72430538  0.14328908    -0.60800
H582        H  0.08701580  0.61906593  0.05823280     0.16100
O583        O  0.03947723  0.55069188  0.10336787    -0.60900
H584        H  0.05467049  0.53250333  0.09737212     0.43100
H585        H  0.17235275  0.74320793  0.15004171     0.43100
C586        C  0.13378000  0.69004870  0.39465507    -0.06000
C587        C  0.10129270  0.69765851  0.37627583    -0.33400
C588        C  0.08130218  0.67446205  0.34294729     0.35800
C589        C  0.09287172  0.64221040  0.32830070    -0.06400
C590        C  0.12684251  0.63630957  0.34609155    -0.33300
C591        C  0.14740952  0.66013186  0.37883652     0.35700
H592        H  0.09052497  0.72059329  0.38828223     0.16100
O593        O  0.04749404  0.68032670  0.32684050    -0.60800
H594        H  0.13597335  0.61146944  0.33545248     0.16100
O595        O  0.17911332  0.65205354  0.39621492    -0.60900
H596        H  0.16064081  0.62617109  0.41384822     0.43100
H597        H  0.06420544  0.70601496  0.30870225     0.43100
C598        C  0.33315093  0.89134398  0.10523906    -0.06000
C599        C  0.35122556  0.86789166  0.12523299    -0.33400
C600        C  0.37536951  0.88663187  0.15818665     0.35800
C601        C  0.37962116  0.92806787  0.17238944    -0.06400
C602        C  0.36108954  0.95118960  0.15269427    -0.33300
C603        C  0.33873116  0.93356381  0.11895181     0.35700
H604        H  0.34662461  0.83500341  0.11520267     0.16100
O605        O  0.39358928  0.86365095  0.17687679    -0.60800
H606        H  0.36557581  0.98400812  0.16278949     0.16100
O607        O  0.32059923  0.95669383  0.10048306    -0.60900
H608        H  0.34637653  0.98009555  0.08472739     0.43100
H609        H  0.42400342  0.87386639  0.16496479     0.43100
C610        C  0.32457837  0.86263038  0.39627249    -0.06000
C611        C  0.33917955  0.84208416  0.36949668    -0.33400
C612        C  0.37517017  0.87016932  0.34463721     0.35800
C613        C  0.39770513  0.91932662  0.34717929    -0.06400
C614        C  0.38374700  0.93955927  0.37453092    -0.33300
C615        C  0.34716554  0.91183896  0.39848084     0.35700
H616        H  0.32280444  0.80431503  0.36798250     0.16100
O617        O  0.38872261  0.84935149  0.31866375    -0.60800
H618        H  0.40107606  0.97729007  0.37725305     0.16100
O619        O  0.33574380  0.93333581  0.42549051    -0.60900
H620        H  0.31443373  0.94185657  0.41343784     0.43100
H621        H  0.41366158  0.84623348  0.33065065     0.43100
C622        C  0.53631501  0.91329262  0.16438051    -0.06000
C623        C  0.55963014  0.88975366  0.17387577    -0.33400
C624        C  0.57945952  0.87575659  0.14652359     0.35800
C625        C  0.57562672  0.88474501  0.10892451    -0.06400
C626        C  0.55037889  0.90622139  0.09924867    -0.33300
C627        C  0.53022499  0.91998458  0.12668393     0.35700
H628        H  0.56536160  0.88507342  0.20262799     0.16100
O629        O  0.60389333  0.85461839  0.15692625    -0.60800
H630        H  0.54577976  0.91177528  0.07044218     0.16100
O631        O  0.50615400  0.94160017  0.11651231    -0.60900
H632        H  0.47488754  0.91589407  0.10929337     0.43100
H633        H  0.63671896  0.88038710  0.15863578     0.43100
C634        C  0.54312877  0.92046119  0.36214295    -0.06000
C635        C  0.51899425  0.87153980  0.35719495    -0.33400
C636        C  0.52808430  0.84278441  0.37962931     0.35800
C637        C  0.56246831  0.86285403  0.40697382    -0.06400
C638        C  0.58674412  0.91164225  0.41190705    -0.33300
C639        C  0.57684646  0.94033465  0.39016653     0.35700
H640        H  0.49329367  0.85553078  0.33554872     0.16100
O641        O  0.50332391  0.79518267  0.37455702    -0.60800
H642        H  0.61257459  0.92753544  0.43350454     0.16100
O643        O  0.60184892  0.98786614  0.39549961    -0.60900
H644        H  0.58445452  0.99409359  0.41472037     0.43100
H645        H  0.52185776  0.78868326  0.35664420     0.43100
C646        C  0.64107883  0.07756963  0.17557012    -0.06000
C647        C  0.65023016  0.12114929  0.16223496    -0.33400
C648        C  0.67134782  0.13754225  0.12780458     0.35800
C649        C  0.68330596  0.11010420  0.10586212    -0.06400
C650        C  0.67343392  0.06620787  0.11859167    -0.33300
C651        C  0.65312925  0.05004506  0.15334180     0.35700
H652        H  0.64045435  0.14236495  0.17834409     0.16100
O653        O  0.68077123  0.18082338  0.11593865    -0.60800
H654        H  0.68324566  0.04518377  0.10225204     0.16100
O655        O  0.64357038  0.00645807  0.16448489    -0.60900
H656        H  0.67339166  0.01106346  0.17407114     0.43100
H657        H  0.65265567  0.17496729  0.10229083     0.43100
C658        C  0.66525767  0.10014880  0.32628053    -0.06000
C659        C  0.67094487  0.14434964  0.33454451    -0.33400
C660        C  0.69734107  0.17036057  0.36478073     0.35800
C661        C  0.71957371  0.15288064  0.38689543    -0.06400
C662        C  0.71948224  0.11216506  0.37527448    -0.33300
C663        C  0.69251442  0.08578183  0.34531109     0.35700
H664        H  0.65154979  0.15712258  0.31957124     0.16100
O665        O  0.69780436  0.21064322  0.37415019    -0.60800
H666        H  0.73751815  0.09854230  0.39109261     0.16100
O667        O  0.68962682  0.04393531  0.33741971    -0.60900
H668        H  0.71535755  0.05186378  0.31979670     0.43100
H669        H  0.72084655  0.23498310  0.35723149     0.43100
C670        C  0.46837408  0.07379592  0.15297078    -0.06000
C671        C  0.45366059  0.10454506  0.16420757    -0.33400
C672        C  0.43537112  0.12218071  0.13838410     0.35800
C673        C  0.43154108  0.10873740  0.10084222    -0.06400
C674        C  0.44450254  0.07658448  0.09010626    -0.33300
C675        C  0.46282567  0.05917297  0.11565538     0.35700
H676        H  0.45665867  0.11515982  0.19286240     0.16100
O677        O  0.42132161  0.15238155  0.15016690    -0.60800
H678        H  0.44124873  0.06540712  0.06157763     0.16100
O679        O  0.47336685  0.02622896  0.10404862    -0.60900
H680        H  0.50405223  0.04420446  0.09155011     0.43100
H681        H  0.38761466  0.13229802  0.15550714     0.43100
C682        C  0.46359366  0.10045234  0.32285454    -0.06000
C683        C  0.50076160  0.14290857  0.33621897    -0.33400
C684        C  0.49441488  0.16743060  0.36501995     0.35800
C685        C  0.45000526  0.14998633  0.38120148    -0.06400
C686        C  0.41211243  0.10971340  0.36571561    -0.33300
C687        C  0.41857191  0.08502118  0.33693038     0.35700
H688        H  0.53567317  0.15615889  0.32562847     0.16100
O689        O  0.53238998  0.20755227  0.37790767    -0.60800
H690        H  0.37747997  0.09586713  0.37708717     0.16100
O691        O  0.38078046  0.04506282  0.32365277    -0.60900
H692        H  0.37349639  0.02074818  0.34255511     0.43100
H693        H  0.54781918  0.19678695  0.39544708     0.43100
O694        O  0.46416741  0.99124248  0.83399317    -0.80700
O695        O  0.53812616  0.98527973  0.68547801    -0.80700
O696        O  0.39687426  0.97080543  0.72814332    -0.80700
O697        O  0.52950841  0.93936055  0.80300029    -0.80700
O698        O  0.45184526  0.96094370  0.70246234    -0.80800
O699        O  0.54680953  0.99541274  0.84338503    -0.80700
O700        O  0.52726627  0.93396944  0.72739661    -0.80700
O701        O  0.43033042  0.94234356  0.78709418    -0.80700
C702        C  0.43245231  0.95184382  0.82134692     1.09000
C703        C  0.53298773  0.94632206  0.69386581     1.08900
C704        C  0.41017812  0.95427028  0.70233804     1.09000
C705        C  0.53796421  0.95400499  0.83573056     1.08900
O706        O  0.59131032  0.08275366  0.79962762    -0.80700
O707        O  0.51098475  0.04078118  0.66781687    -0.80800
O708        O  0.43873299  0.03138733  0.78680804    -0.80700
O709        O  0.60799825  0.02794428  0.72443311    -0.80700
O710        O  0.58005895  0.07476094  0.71776805    -0.80700
O711        O  0.51126982  0.08130824  0.79457211    -0.80700
O712        O  0.61381122  0.03151621  0.79915514    -0.80600
O713        O  0.47416069  0.05185002  0.71361779    -0.80700
Co714      Co  0.52841065  0.03730596  0.81527728     1.51500
Co715      Co  0.51639999  0.02070579  0.71399162     1.51700
Co716      Co  0.45556511  0.99500166  0.75129680     1.51600
Co717      Co  0.56592058  0.98360028  0.76377647     1.51500
O718        O  0.51949836  0.00686797  0.76602231    -1.42600
C719        C  0.62222229  0.07286841  0.80565333     1.08900
C720        C  0.48686414  0.05737370  0.67895861     1.09000
C721        C  0.46974132  0.07037166  0.79959845     1.09000
C722        C  0.61052676  0.06411290  0.70983633     1.08900
O723        O  0.97074067  0.50977917  0.83900044    -0.80700
O724        O  0.92375858  0.41710164  0.71100539    -0.80700
O725        O  0.98337341  0.57489489  0.71746952    -0.80700
O726        O  0.98199761  0.40552800  0.78703621    -0.80700
O727        O  0.92791226  0.50291723  0.71222166    -0.80800
O728        O  0.93594047  0.43444061  0.79364245    -0.80700
O729        O  0.97506772  0.39491198  0.71230883    -0.80700
O730        O  0.96285577  0.54303179  0.78829881    -0.80700
C731        C  0.95219733  0.52965857  0.82239378     1.09000
C732        C  0.93588833  0.38822937  0.70177568     1.08900
C733        C  0.94407903  0.54559867  0.70452235     1.09000
C734        C  0.94582293  0.40312737  0.80128050     1.08900
O735        O  0.02786857  0.47893166  0.82229267    -0.80700
O736        O  0.01381040  0.54146099  0.67034499    -0.80800
O737        O  0.04658203  0.61958362  0.77271021    -0.80700
O738        O  0.06472825  0.47626327  0.70215154    -0.80700
O739        O  0.00609553  0.45867231  0.66485336    -0.80700
O740        O  0.05118421  0.56393801  0.80278197    -0.80700
O741        O  0.07545966  0.48659352  0.77794445    -0.80600
O742        O  0.06792938  0.57832661  0.71328668    -0.80700
Co743      Co  0.99059956  0.49903074  0.79373780     1.51500
Co744      Co  0.96788489  0.47991353  0.69268608     1.51700
Co745      Co  0.01875470  0.55805791  0.75215652     1.51600
Co746      Co  0.02396452  0.44452156  0.74484587     1.51500
O747        O  0.00157410  0.49160964  0.74109606    -1.42600
C748        C  0.06578155  0.48283272  0.81192131     1.08900
C749        C  0.05496371  0.57256445  0.67944125     1.09000
C750        C  0.06215746  0.60721839  0.79969805     1.09000
C751        C  0.04671269  0.46560902  0.67030360     1.08900
O752        O  0.50460835  0.41779575  0.78739959    -0.80700
O753        O  0.55054349  0.53494798  0.66701638    -0.80700
O754        O  0.45785408  0.39958674  0.71270920    -0.80700
O755        O  0.61740146  0.57293002  0.78210790    -0.80700
O756        O  0.52510735  0.44882004  0.69087748    -0.80800
O757        O  0.59321914  0.49888926  0.79371971    -0.80700
O758        O  0.60732408  0.56603380  0.70754848    -0.80700
O759        O  0.43270626  0.39757438  0.77941656    -0.80700
C760        C  0.46201972  0.38970887  0.79444266     1.09000
C761        C  0.59322292  0.55492228  0.67466454     1.08900
C762        C  0.49089326  0.40798905  0.69069680     1.09000
C763        C  0.62374846  0.54198809  0.79673810     1.08900
O764        O  0.55094323  0.54477762  0.82850669    -0.80700
O765        O  0.46059385  0.46308448  0.65647810    -0.80800
O766        O  0.42500502  0.47402902  0.77301790    -0.80700
O767        O  0.54085478  0.59429996  0.71238041    -0.80700
O768        O  0.47346748  0.53157812  0.70321234    -0.80700
O769        O  0.46496310  0.47128085  0.82052313    -0.80700
O770        O  0.54103604  0.58869805  0.78846603    -0.80600
O771        O  0.41161571  0.44233030  0.70305932    -0.80700
Co772      Co  0.52835269  0.48366625  0.80315894     1.51500
Co773      Co  0.49946519  0.48943479  0.69949567     1.51700
Co774      Co  0.45678351  0.45012079  0.74339023     1.51600
Co775      Co  0.57256726  0.57536783  0.74777300     1.51500
O776        O  0.52500949  0.50493760  0.74999555    -1.42600
C777        C  0.54460248  0.57849764  0.82152507     1.08900
C778        C  0.41906535  0.44404507  0.66824733     1.09000
C779        C  0.43023866  0.47285548  0.80737418     1.09000
C780        C  0.50120843  0.57459005  0.69803185     1.08900
O781        O  0.86557306  0.60477936  0.93937966    -0.80700
O782        O  0.79867537  0.67236575  0.47837991    -0.80700
O783        O  0.76434191  0.57524960  0.93445706    -0.80700
O784        O  0.89790477  0.68844627  0.54666297    -0.80700
O785        O  0.71584475  0.59766388  0.95420409    -0.80800
O786        O  0.90544462  0.67487023  0.98847253    -0.80700
O787        O  0.81265964  0.68690179  0.53771267    -0.80700
O788        O  0.81283397  0.53194469  0.94315103    -0.80700
C789        C  0.84577435  0.56459198  0.92547321     1.09000
C790        C  0.80195354  0.69679417  0.50656697     1.08900
C791        C  0.73222508  0.58490540  0.92785272     1.09000
C792        C  0.92294351  0.70154742  0.51724898     1.08900
O793        O  0.90527076  0.61439618  0.54461062    -0.80700
O794        O  0.71135078  0.53295304  0.49860160    -0.80800
O795        O  0.78683323  0.50864396  0.01803104    -0.80700
O796        O  0.76442591  0.59393391  0.56987776    -0.80700
O797        O  0.72918810  0.61328299  0.52936381    -0.80700
O798        O  0.85881110  0.53803680  0.99798476    -0.80700
O799        O  0.84251772  0.59386465  0.57736495    -0.80600
O800        O  0.72641283  0.48792823  0.96080038    -0.80700
Co801      Co  0.88025785  0.60756522  0.99265278     1.51500
Co802      Co  0.76137053  0.60368280  0.48641868     1.51700
Co803      Co  0.77566773  0.54371358  0.97975476     1.51600
Co804      Co  0.82880160  0.63886801  0.55504078     1.51500
O805        O  0.81905607  0.60535426  0.50613657    -1.42600
C806        C  0.88129057  0.59700186  0.57386054     1.08900
C807        C  0.69734982  0.49132673  0.98063976     1.09000
C808        C  0.82172960  0.50406364  0.01230330     1.09000
C809        C  0.73021171  0.59793488  0.56106205     1.08900
O810        O  0.75361094  0.15343718  0.94201327    -0.80700
O811        O  0.87489490  0.22291208  0.48221206    -0.80700
O812        O  0.81931971  0.26672343  0.94043535    -0.80700
O813        O  0.79247545  0.12384956  0.55472851    -0.80700
O814        O  0.89038862  0.30825650  0.96321618    -0.80800
O815        O  0.77851924  0.11035131  0.99371801    -0.80700
O816        O  0.87511283  0.20906084  0.54187308    -0.80700
O817        O  0.72983185  0.20374565  0.94202727    -0.80700
C818        C  0.73615676  0.17389572  0.92500281     1.09000
C819        C  0.89449796  0.21667718  0.50976590     1.08900
C820        C  0.86306672  0.29746271  0.93596903     1.09000
C821        C  0.78526250  0.09841498  0.52633443     1.08900
O822        O  0.70961889  0.11125023  0.54509325    -0.80700
O823        O  0.82310708  0.30799223  0.50470765    -0.80800
O824        O  0.71701028  0.21904448  0.01927170    -0.80700
O825        O  0.82390564  0.25532308  0.57060058    -0.80700
O826        O  0.88551384  0.28969958  0.53680945    -0.80700
O827        O  0.68285749  0.14960607  0.99339131    -0.80700
O828        O  0.74803356  0.17506009  0.57845122    -0.80600
O829        O  0.76229395  0.29282862  0.97190963    -0.80700
Co830      Co  0.73494260  0.13420685  0.99345433     1.51500
Co831      Co  0.84545126  0.26033928  0.49168685     1.51700
Co832      Co  0.77024844  0.24179629  0.98438104     1.51600
Co833      Co  0.80910154  0.19195170  0.55885779     1.51500
O834        O  0.78850044  0.20053167  0.50866746    -1.42600
C835        C  0.71367065  0.13468595  0.57415700     1.08900
C836        C  0.79559288  0.31970987  0.99304906     1.09000
C837        C  0.67988402  0.18196242  0.01014088     1.09000
C838        C  0.86499298  0.28733358  0.56675685     1.08900
O839        O  0.26527907  0.84597483  0.94152481    -0.80700
O840        O  0.13839799  0.77850921  0.48649360    -0.80700
O841        O  0.19561310  0.74001697  0.93572155    -0.80700
O842        O  0.22215043  0.87620490  0.55057414    -0.80700
O843        O  0.12590393  0.69206039  0.96035905    -0.80800
O844        O  0.23410638  0.88239391  0.99346173    -0.80700
O845        O  0.14271492  0.78933612  0.54673121    -0.80700
O846        O  0.29126670  0.79853998  0.94026899    -0.80700
C847        C  0.29019395  0.83261635  0.92610960     1.09000
C848        C  0.12105138  0.78322990  0.51643809     1.08900
C849        C  0.15223961  0.70759657  0.93210905     1.09000
C850        C  0.22697085  0.89921796  0.52077709     1.08900
O851        O  0.30436297  0.89309656  0.54242473    -0.80700
O852        O  0.19326035  0.69294390  0.49764798    -0.80800
O853        O  0.29463359  0.77306311  0.01426073    -0.80700
O854        O  0.19465156  0.74586132  0.57230259    -0.80700
O855        O  0.13484345  0.70922366  0.53600529    -0.80700
O856        O  0.33190598  0.84712294  0.99624357    -0.80700
O857        O  0.27199364  0.82896906  0.57537666    -0.80600
O858        O  0.25243291  0.70953220  0.95878743    -0.80700
Co859      Co  0.28028442  0.86276458  0.99380908     1.51500
Co860      Co  0.17076681  0.74208968  0.48996323     1.51700
Co861      Co  0.24453804  0.75747220  0.97845836     1.51600
Co862      Co  0.20914211  0.80917974  0.55861087     1.51500
O863        O  0.22808288  0.80066168  0.50748790    -1.42600
C864        C  0.30304739  0.87105136  0.57152905     1.08900
C865        C  0.22153848  0.67974063  0.98003333     1.09000
C866        C  0.33226272  0.81195158  0.01062379     1.09000
C867        C  0.15511017  0.71104789  0.56611598     1.08900
O868        O  0.54294990  0.84877868  0.00283460    -0.80700
O869        O  0.58660421  0.69750466  0.55862421    -0.80700
O870        O  0.47892663  0.70907792  0.97146950    -0.80700
O871        O  0.58722199  0.82775276  0.58669926    -0.80700
O872        O  0.50799150  0.68471585  0.51557487    -0.80800
O873        O  0.61339156  0.89024120  0.55217451    -0.80700
O874        O  0.57515003  0.74667166  0.58746228    -0.80700
O875        O  0.50573251  0.77637212  0.02366659    -0.80700
C876        C  0.50686402  0.81463596  0.01755053     1.09000
C877        C  0.57007117  0.70662662  0.58597971     1.08900
C878        C  0.47371702  0.67674025  0.99301160     1.09000
C879        C  0.59354347  0.86770239  0.58141951     1.08900
O880        O  0.67579551  0.88366798  0.99798231    -0.80700
O881        O  0.56875496  0.68523124  0.97481381    -0.80800
O882        O  0.53225382  0.79825692  0.94812485    -0.80700
O883        O  0.67114575  0.78345390  0.55067388    -0.80700
O884        O  0.64295727  0.74947904  0.49718317    -0.80700
O885        O  0.60626764  0.84730084  0.94738713    -0.80700
O886        O  0.68151037  0.87321714  0.55877484    -0.80600
O887        O  0.56387664  0.73752129  0.94370313    -0.80700
Co888      Co  0.60944143  0.86303581  0.00000094     1.51500
Co889      Co  0.58043466  0.72913651  0.51527517     1.51700
Co890      Co  0.53716480  0.75749063  0.98682596     1.51600
Co891      Co  0.62702877  0.80659315  0.56684867     1.51500
O892        O  0.59683726  0.79807529  0.51529514    -1.42600
C893        C  0.69748711  0.89892368  0.53003862     1.08900
C894        C  0.56436342  0.69930573  0.94425322     1.09000
C895        C  0.56692502  0.83329474  0.93348939     1.09000
C896        C  0.67568483  0.76619835  0.52022190     1.08900
O897        O  0.09987000  0.39598401  0.95348767    -0.80700
O898        O  0.21959603  0.33064067  0.47007590    -0.80700
O899        O  0.24704793  0.39439857  0.91768555    -0.80700
O900        O  0.11696068  0.31265415  0.53301976    -0.80700
O901        O  0.30560718  0.40076875  0.95072006    -0.80800
O902        O  0.11511502  0.32625590  0.97277066    -0.80700
O903        O  0.20066346  0.31233322  0.52801416    -0.80700
O904        O  0.15445583  0.39162066  0.92170744    -0.80700
C905        C  0.12230715  0.40261430  0.92333224     1.09000
C906        C  0.21303780  0.30374694  0.49715207     1.08900
C907        C  0.29036717  0.40542469  0.91983671     1.09000
C908        C  0.09506481  0.30209862  0.50271256     1.08900
O909        O  0.10895904  0.38530991  0.53156794    -0.80700
O910        O  0.29958146  0.46350766  0.49954364    -0.80800
O911        O  0.20865777  0.48522248  0.94830340    -0.80700
O912        O  0.24585911  0.40042581  0.56631104    -0.80700
O913        O  0.28422254  0.38393118  0.52624029    -0.80700
O914        O  0.16858552  0.46013992  0.99813548    -0.80700
O915        O  0.16634107  0.40197306  0.56921143    -0.80600
O916        O  0.28564822  0.48520476  0.94759747    -0.80700
Co917      Co  0.14542501  0.39442229  0.98302920     1.51500
Co918      Co  0.25759776  0.39826048  0.48249862     1.51700
Co919      Co  0.22109208  0.43380739  0.93989348     1.51600
Co920      Co  0.18392192  0.35975185  0.54541856     1.51500
O921        O  0.20507514  0.40319396  0.49909617    -1.42600
C922        C  0.12895171  0.40115227  0.56230013     1.08900
C923        C  0.30970044  0.49403333  0.97606258     1.09000
C924        C  0.19213874  0.49316208  0.97646409     1.09000
C925        C  0.27941465  0.39467731  0.55872661     1.08900
O926        O  0.46883517  0.14806804  0.99265057    -0.80700
O927        O  0.41435298  0.29238967  0.53274679    -0.80700
O928        O  0.52712830  0.28686350  0.95929477    -0.80700
O929        O  0.42246862  0.16959432  0.57402005    -0.80700
O930        O  0.49196193  0.30558404  0.49941354    -0.80800
O931        O  0.40301803  0.10979834  0.53692022    -0.80700
O932        O  0.43191432  0.25139844  0.56830664    -0.80700
O933        O  0.50517576  0.22069278  0.01300913    -0.80700
C934        C  0.50477272  0.18271369  0.00735453     1.09000
C935        C  0.42975079  0.28740197  0.56333065     1.08900
C936        C  0.52698752  0.31551165  0.98219375     1.09000
C937        C  0.41906865  0.13093885  0.56739852     1.08900
O938        O  0.33371122  0.10915818  0.99075767    -0.80700
O939        O  0.42672117  0.30837980  0.95992603    -0.80800
O940        O  0.47526855  0.19767115  0.93826008    -0.80700
O941        O  0.33756889  0.21063268  0.53548818    -0.80700
O942        O  0.35429683  0.22611951  0.47657090    -0.80700
O943        O  0.40173683  0.14657252  0.93776481    -0.80700
O944        O  0.33059735  0.12287374  0.54460431    -0.80600
O945        O  0.44020308  0.25556002  0.93509183    -0.80700
Co946      Co  0.40085147  0.13190073  0.99107006     1.51500
Co947      Co  0.42158026  0.26098380  0.48692416     1.51700
Co948      Co  0.47053264  0.23740734  0.97776398     1.51600
Co949      Co  0.38267503  0.18977928  0.55239153     1.51500
O950        O  0.41529621  0.19911798  0.50267006    -1.42600
C951        C  0.31551009  0.09692503  0.51612494     1.08900
C952        C  0.43353316  0.29053766  0.93131844     1.09000
C953        C  0.44061112  0.16525190  0.92164607     1.09000
C954        C  0.32745267  0.21941649  0.50350998     1.08900
C955        C  0.28841420  0.22920685  0.49905697    -0.06000
C956        C  0.26432475  0.23042511  0.53050080    -0.33400
C957        C  0.23613696  0.25056068  0.52942853     0.35800
C958        C  0.23093266  0.27022917  0.49623587    -0.06400
C959        C  0.25154812  0.26502208  0.46393339    -0.33300
C960        C  0.27942413  0.24428452  0.46503217     0.35700
H961        H  0.26916190  0.21915328  0.05936355     0.16100
O962        O  0.21661561  0.25492773  0.06298828    -0.60800
H963        H  0.24826434  0.27940558  0.43800009     0.16100
O964        O  0.29990349  0.24163058  0.43293813    -0.60900
H965        H  0.27775275  0.21045388  0.42246641     0.43100
H966        H  0.24257350  0.28251970  0.07535437     0.43100
C967        C  0.42988374  0.63123145  0.99121101    -0.06000
C968        C  0.40525214  0.61918316  0.95786734    -0.33400
C969        C  0.36632711  0.57495748  0.95271711     0.35800
C970        C  0.35041081  0.54155911  0.98159393    -0.06400
C971        C  0.37069002  0.55917068  0.51734886    -0.33300
C972        C  0.41051369  0.60366835  0.52187089     0.35700
H973        H  0.41733290  0.64351143  0.93481551     0.16100
O974        O  0.34601580  0.56392552  0.91844797    -0.60800
H975        H  0.35466702  0.53724751  0.54142227     0.16100
O976        O  0.42764187  0.61925178  0.55662313    -0.60900
H977        H  0.44182677  0.60065196  0.56423313     0.43100
H978        H  0.32876038  0.58088482  0.91640241     0.43100
C979        C  0.23336148  0.94721036  0.52147964    -0.06000
C980        C  0.24701531  0.97323659  0.55437087    -0.33400
C981        C  0.26936571  0.02240741  0.55367600     0.35800
C982        C  0.27834510  0.04656416  0.51959332    -0.06400
C983        C  0.25898423  0.02006388  0.48740665    -0.33300
C984        C  0.23641891  0.97101382  0.48815295     0.35700
H985        H  0.24447033  0.95595943  0.58041444     0.16100
O986        O  0.28708988  0.04636179  0.58603032    -0.60800
H987        H  0.26442249  0.03749359  0.46095934     0.16100
O988        O  0.22135984  0.94711699  0.45543631    -0.60900
H989        H  0.18881137  0.93989991  0.45280030     0.43100
H990        H  0.26234609  0.05141932  0.59613743     0.43100
C991        C  0.20074008  0.54082710  0.98269598    -0.06000
C992        C  0.24323576  0.57872472  0.97067687    -0.33400
C993        C  0.25122193  0.62426947  0.97117891     0.35800
C994        C  0.21622429  0.63279465  0.98399058    -0.06400
C995        C  0.17679990  0.59812743  0.50318512    -0.33300
C996        C  0.16941546  0.55233314  0.50355487     0.35700
H997        H  0.27021431  0.57286304  0.96008479     0.16100
O998        O  0.29345807  0.66013527  0.95904099    -0.60800
H999        H  0.15198815  0.60483172  0.51709575     0.16100
O1000       O  0.13095816  0.51733134  0.52120144    -0.60900
H1001       H  0.14064912  0.51837199  0.54723615     0.43100
H1002       H  0.29180405  0.65859599  0.93166038     0.43100
C1003       C  0.37755321  0.81516811  0.01912775    -0.06000
C1004       C  0.41930556  0.85567327  0.00890747    -0.33400
C1005       C  0.46196225  0.85708426  0.01017572     0.35800
C1006       C  0.46398685  0.81763829  0.02252393    -0.06400
C1007       C  0.42275485  0.77849504  0.03553360    -0.33300
C1008       C  0.37993673  0.77689042  0.03379684     0.35700
H1009       H  0.41882996  0.88584869  0.99798774     0.16100
O1010       O  0.50109920  0.89677061  0.99786496    -0.60800
H1011       H  0.42123304  0.74591224  0.53833275     0.16100
O1012       O  0.33881272  0.73473432  0.53626496    -0.60900
H1013       H  0.33074605  0.71556108  0.51345374     0.43100
H1014       H  0.50051107  0.89387599  0.97055038     0.43100
C1015       C  0.77611354  0.04939257  0.52978893    -0.06000
C1016       C  0.75970234  0.02500771  0.56348021    -0.33400
C1017       C  0.73837026  0.97585102  0.56509434     0.35800
C1018       C  0.73333300  0.94991381  0.53263388    -0.06400
C1019       C  0.75431054  0.97489784  0.49992752    -0.33300
C1020       C  0.77538577  0.02384645  0.49829801     0.35700
H1021       H  0.75978706  0.04355486  0.58813514     0.16100
O1022       O  0.71308435  0.95185545  0.09480219    -0.60800
H1023       H  0.75129483  0.95609113  0.47463026     0.16100
O1024       O  0.79197559  0.04584479  0.46492245    -0.60900
H1025       H  0.82597705  0.05846695  0.46572092     0.43100
H1026       H  0.73695424  0.95179327  0.11095579     0.43100
C1027       C  0.94383802  0.22688087  0.50566211    -0.06000
C1028       C  0.96928412  0.22853375  0.53711232    -0.33400
C1029       C  0.01800312  0.24872690  0.53580745     0.35800
C1030       C  0.04314885  0.26862056  0.50257207    -0.06400
C1031       C  0.01665218  0.26579424  0.96870938    -0.33300
C1032       C  0.96795931  0.24515820  0.97025041     0.35700
H1033       H  0.95177881  0.21657148  0.56353797     0.16100
O1034       O  0.04082813  0.25201774  0.56809781    -0.60800
H1035       H  0.03451000  0.28300789  0.94333183     0.16100
O1036       O  0.94556510  0.24741730  0.93932858    -0.60900
H1037       H  0.93581867  0.21782387  0.92591851     0.43100
H1038       H  0.04350402  0.22359041  0.56876089     0.43100
C1039       C  0.63341507  0.17881392  0.01497206    -0.06000
C1040       C  0.63127140  0.21758495  0.02839705    -0.33400
C1041       C  0.58944898  0.21842100  0.02815405     0.35800
C1042       C  0.54805738  0.18015571  0.01388825    -0.06400
C1043       C  0.54957283  0.14025237  0.00271421    -0.33300
C1044       C  0.59126066  0.13921382  0.00336206     0.35700
H1045       H  0.66260439  0.24834987  0.03803330     0.16100
O1046       O  0.59021117  0.25789854  0.04049159    -0.60800
H1047       H  0.51851939  0.10997302  0.99213682     0.16100
O1048       O  0.59047706  0.09974813  0.99100269    -0.60900
H1049       H  0.58441584  0.08010114  0.01329784     0.43100
H1050       H  0.58373458  0.25282567  0.06737691     0.43100
C1051       C  0.97401355  0.73666136  0.51807096    -0.06000
C1052       C  0.99838697  0.74441135  0.55126434    -0.33400
C1053       C  0.04668980  0.76255241  0.55132617     0.35800
C1054       C  0.07224497  0.77435226  0.51765496    -0.06400
C1055       C  0.04844135  0.76390577  0.98504231    -0.33300
C1056       C  0.00011768  0.74554974  0.98462323     0.35700
H1057       H  0.97949432  0.73236334  0.57714535     0.16100
O1058       O  0.06771774  0.76516555  0.58445808    -0.60800
H1059       H  0.06694368  0.77159903  0.95893951     0.16100
O1060       O  0.97851187  0.73828937  0.95107324    -0.60900
H1061       H  0.97349298  0.76506526  0.94783787     0.43100
H1062       H  0.06407243  0.73380935  0.58811775     0.43100
C1063       C  0.78136092  0.72804950  0.50617049    -0.06000
C1064       C  0.75442233  0.72678548  0.47586787    -0.33400
C1065       C  0.72245144  0.74245475  0.47904463     0.35800
C1066       C  0.71676578  0.76027131  0.51306972    -0.06400
C1067       C  0.74737359  0.76646968  0.54190125    -0.33300
C1068       C  0.77909033  0.75051259  0.53882965     0.35700
H1069       H  0.75543563  0.71034970  0.45029083     0.16100
O1070       O  0.69579705  0.73855954  0.44894863    -0.60800
H1071       H  0.74690277  0.78218976  0.06528303     0.16100
O1072       O  0.80900154  0.75690164  0.06661306    -0.60900
H1073       H  0.78949431  0.73417887  0.08607059     0.43100
H1074       H  0.67087094  0.70509205  0.44813197     0.43100
C1075       C  0.80342449  0.36637983  0.00313811    -0.06000
C1076       C  0.76592124  0.37147059  0.01389217    -0.33400
C1077       C  0.77215887  0.41598135  0.02065739     0.35800
C1078       C  0.81642674  0.45669892  0.01545101    -0.06400
C1079       C  0.85386843  0.45265291  0.50721861    -0.33300
C1080       C  0.84820451  0.40811644  0.50144042     0.35700
H1081       H  0.73146204  0.34083235  0.01658891     0.16100
O1082       O  0.73439259  0.41916556  0.03134192    -0.60800
H1083       H  0.88867132  0.48301298  0.50650178     0.16100
O1084       O  0.88679811  0.40450035  0.49524498    -0.60900
H1085       H  0.89772801  0.40213026  0.52015379     0.43100
H1086       H  0.71547473  0.41297816  0.00868365     0.43100
C1087       C  0.56765559  0.36306483  0.98385995    -0.06000
C1088       C  0.58862975  0.38406798  0.95022015    -0.33400
C1089       C  0.62898543  0.42762629  0.94929846     0.35800
C1090       C  0.64985586  0.45092910  0.98239986    -0.06400
C1091       C  0.63194058  0.43025485  0.51560840    -0.33300
C1092       C  0.59050609  0.38630223  0.51534181     0.35700
H1093       H  0.57384470  0.36630698  0.92432713     0.16100
O1094       O  0.64868482  0.44664352  0.91571291    -0.60800
H1095       H  0.65092840  0.44374266  0.54118054     0.16100
O1096       O  0.57464619  0.36032639  0.54725988    -0.60900
H1097       H  0.57225857  0.38093445  0.56586323     0.43100
H1098       H  0.63400567  0.46482907  0.90804164     0.43100
C1099       C  0.44440847  0.32054930  0.59462855    -0.06000
C1100       C  0.48291835  0.36605876  0.59175843    -0.33400
C1101       C  0.50235805  0.39366651  0.62360831     0.35800
C1102       C  0.48232989  0.37607896  0.65899884    -0.06400
C1103       C  0.44464782  0.33015691  0.66148659    -0.33300
C1104       C  0.42590337  0.30268173  0.62996184     0.35700
H1105       H  0.49850660  0.37980150  0.56495612     0.16100
O1106       O  0.53916512  0.43852794  0.61945398    -0.60800
H1107       H  0.42825198  0.31598244  0.68799042     0.16100
O1108       O  0.38907612  0.25785606  0.63399829    -0.60900
H1109       H  0.36105578  0.26005071  0.62922427     0.43100
H1110       H  0.56733919  0.43588840  0.62152381     0.43100
C1111       C  0.43433315  0.30949591  0.89397319    -0.06000
C1112       C  0.46245534  0.30673629  0.86616694    -0.33400
C1113       C  0.46971632  0.33039229  0.83241796     0.35800
C1114       C  0.44795128  0.35642554  0.82568393    -0.06400
C1115       C  0.41697481  0.35615176  0.85224539    -0.33300
C1116       C  0.41045911  0.33343370  0.88632306     0.35700
H1117       H  0.48091871  0.28828928  0.87134247     0.16100
O1118       O  0.49946964  0.32928941  0.80677633    -0.60800
H1119       H  0.39997599  0.37615975  0.84761493     0.16100
O1120       O  0.38245981  0.33671992  0.91255364    -0.60900
H1121       H  0.35031076  0.31769144  0.90301618     0.43100
H1122       H  0.47921725  0.30384605  0.78945987     0.43100
C1123       C  0.62678357  0.56451846  0.64490518    -0.06000
C1124       C  0.62137064  0.58012720  0.61020374    -0.33400
C1125       C  0.65412912  0.59045464  0.58201970     0.35800
C1126       C  0.69263361  0.58477395  0.58849448    -0.06400
C1127       C  0.69635011  0.56700662  0.62281020    -0.33300
C1128       C  0.66403700  0.55716309  0.65083679     0.35700
H1129       H  0.59228591  0.58527291  0.60523342     0.16100
O1130       O  0.64875699  0.60716110  0.54885594    -0.60800
H1131       H  0.72481456  0.56108203  0.62834512     0.16100
O1132       O  0.66812713  0.53856492  0.68352164    -0.60900
H1133       H  0.69189776  0.56558642  0.69784107     0.43100
H1134       H  0.63023617  0.57899486  0.53343130     0.43100
C1135       C  0.66079335  0.55843292  0.82503386    -0.06000
C1136       C  0.68078783  0.53172614  0.83501613    -0.33400
C1137       C  0.70892285  0.54341128  0.86656561     0.35800
C1138       C  0.71409845  0.57986828  0.89002924    -0.06400
C1139       C  0.69696264  0.60836241  0.87869346    -0.33300
C1140       C  0.67183099  0.59894875  0.84606083     0.35700
H1141       H  0.67357998  0.50116133  0.81902018     0.16100
O1142       O  0.72784353  0.51652725  0.87579688    -0.60800
H1143       H  0.70171584  0.63725354  0.89585806     0.16100
O1144       O  0.65454222  0.62735900  0.83707297    -0.60900
H1145       H  0.67936845  0.65315142  0.82226334     0.43100
H1146       H  0.75877836  0.53185628  0.86343004     0.43100
C1147       C  0.49519505  0.60121091  0.66833260    -0.06000
C1148       C  0.51003763  0.64823550  0.67588172    -0.33400
C1149       C  0.53272839  0.68277438  0.64882568     0.35800
C1150       C  0.54127021  0.67047901  0.61361065    -0.06400
C1151       C  0.52156417  0.62296139  0.60480872    -0.33300
C1152       C  0.49749326  0.58837181  0.63155466     0.35700
H1153       H  0.50917726  0.65895381  0.70402734     0.16100
O1154       O  0.55068310  0.72880303  0.65839631    -0.60800
H1155       H  0.52607412  0.61255961  0.57743319     0.16100
O1156       O  0.48219398  0.54276776  0.62250815    -0.60900
H1157       H  0.44985732  0.53009676  0.61378558     0.43100
H1158       H  0.52525872  0.73528975  0.65379430     0.43100
C1159       C  0.54580173  0.60820920  0.85263050    -0.06000
C1160       C  0.55285244  0.65321779  0.84588720    -0.33400
C1161       C  0.55927485  0.68377731  0.87514691     0.35800
C1162       C  0.55830485  0.66944369  0.91178796    -0.06400
C1163       C  0.54988448  0.62385057  0.91844490    -0.33300
C1164       C  0.54359161  0.59341775  0.88956351     0.35700
H1165       H  0.55486444  0.66539773  0.81779748     0.16100
O1166       O  0.56718884  0.72770515  0.86751933    -0.60800
H1167       H  0.54821988  0.61131127  0.94640243     0.16100
O1168       O  0.53714057  0.54999984  0.89784218    -0.60900
H1169       H  0.50675060  0.53272069  0.91078911     0.43100
H1170       H  0.60146032  0.74836468  0.86797631     0.43100
C1171       C  0.31258899  0.40105178  0.58788027    -0.06000
C1172       C  0.30562119  0.41313555  0.62356993    -0.33400
C1173       C  0.33873485  0.42437305  0.65099157     0.35800
C1174       C  0.38022759  0.42512739  0.64238946    -0.06400
C1175       C  0.38540179  0.40911700  0.60790430    -0.33300
C1176       C  0.35161302  0.39646718  0.58079585     0.35700
H1177       H  0.27505135  0.41525635  0.63011745     0.16100
O1178       O  0.33158673  0.43767844  0.68514593    -0.60800
H1179       H  0.41627377  0.40741444  0.60165671     0.16100
O1180       O  0.35824005  0.38171029  0.54713356    -0.60900
H1181       H  0.34204070  0.34709069  0.54903677     0.43100
H1182       H  0.31043057  0.40809285  0.69826025     0.43100
C1183       C  0.39228372  0.46491600  0.83271662    -0.06000
C1184       C  0.40352774  0.48217596  0.86866842    -0.33400
C1185       C  0.37010688  0.46387337  0.89671093     0.35800
C1186       C  0.32398042  0.42801124  0.88895533    -0.06400
C1187       C  0.31151910  0.41421332  0.85213260    -0.33300
C1188       C  0.34543933  0.43236988  0.82400444     0.35700
H1189       H  0.43904891  0.50809877  0.87547118     0.16100
O1190       O  0.38309546  0.48113393  0.93182430    -0.60800
H1191       H  0.27619919  0.38744850  0.84550127     0.16100
O1192       O  0.33334149  0.41452613  0.78896808    -0.60900
H1193       H  0.32536759  0.43578966  0.77592476     0.43100
H1194       H  0.40041651  0.46645976  0.94157115     0.43100
C1195       C  0.92609696  0.55974468  0.67267140    -0.06000
C1196       C  0.95766492  0.59923569  0.65166734    -0.33400
C1197       C  0.94439565  0.61027670  0.61829078     0.35800
C1198       C  0.89852043  0.58259016  0.60577009    -0.06400
C1199       C  0.86670052  0.54352536  0.62687665    -0.33300
C1200       C  0.88026685  0.53172617  0.65982374     0.35700
H1201       H  0.99340258  0.62107315  0.66050328     0.16100
O1202       O  0.97590953  0.64946405  0.59910670    -0.60800
H1203       H  0.83101672  0.52206103  0.61775877     0.16100
O1204       O  0.84855393  0.49266874  0.67904785    -0.60900
H1205       H  0.83335085  0.50388011  0.69644408     0.43100
H1206       H  0.99392595  0.63934553  0.58388979     0.43100
C1207       C  0.91757133  0.53594350  0.84219394    -0.06000
C1208       C  0.92086974  0.57979165  0.84228001    -0.33400
C1209       C  0.89498328  0.58915563  0.86772348     0.35800
C1210       C  0.86511339  0.55405821  0.89285250    -0.06400
C1211       C  0.85849172  0.50887738  0.88986654    -0.33300
C1212       C  0.88478191  0.49982148  0.86502620     0.35700
H1213       H  0.94586726  0.60768116  0.82452954     0.16100
O1214       O  0.90113997  0.63327619  0.86921034    -0.60800
H1215       H  0.83546180  0.48124742  0.90872790     0.16100
O1216       O  0.88033694  0.45634539  0.86489036    -0.60900
H1217       H  0.85363386  0.43706334  0.84846563     0.43100
H1218       H  0.87525921  0.63145214  0.85452474     0.43100
C1219       C  0.91407993  0.35794169  0.66922164    -0.06000
C1220       C  0.93731918  0.33759087  0.65165063    -0.33400
C1221       C  0.92406320  0.31769356  0.61653784     0.35800
C1222       C  0.88703147  0.31770152  0.59847170    -0.06400
C1223       C  0.86301791  0.33678548  0.61610082    -0.33300
C1224       C  0.87636737  0.35711503  0.65099466     0.35700
H1225       H  0.96680646  0.33819524  0.66462165     0.16100
O1226       O  0.94651535  0.29705080  0.60062721    -0.60800
H1227       H  0.83307031  0.33508601  0.60294125     0.16100
O1228       O  0.85216698  0.37588502  0.66696671    -0.60900
H1229       H  0.86409648  0.40680546  0.65483657     0.39500
H1230       H  0.92994018  0.26435602  0.60992724     0.43100
C1231       C  0.92180964  0.36988120  0.83254143    -0.06000
C1232       C  0.87524148  0.35464514  0.84156111    -0.33400
C1233       C  0.85480108  0.32890918  0.87418865     0.35800
C1234       C  0.88143986  0.31934960  0.89913037    -0.06400
C1235       C  0.92752528  0.33367915  0.88966214    -0.33300
C1236       C  0.94747386  0.35795179  0.85670795     0.35700
H1237       H  0.85492963  0.36358104  0.82369533     0.16100
O1238       O  0.80979460  0.31613444  0.88261097    -0.60800
H1239       H  0.94871421  0.32684221  0.90830650     0.16100
O1240       O  0.99348283  0.37316649  0.85003932    -0.60900
H1241       H  0.99380083  0.34603340  0.83890877     0.43100
H1242       H  0.79031753  0.28757242  0.86776145     0.43100
C1243       C  0.07010351  0.45450848  0.64057475    -0.06000
C1244       C  0.11329565  0.45851306  0.64761461    -0.33400
C1245       C  0.13288061  0.44129175  0.62259614     0.35800
C1246       C  0.10947117  0.41995558  0.58942995    -0.06400
C1247       C  0.06712268  0.41743773  0.58179010    -0.33300
C1248       C  0.04751388  0.43465369  0.60678510     0.35700
H1249       H  0.13147151  0.47372024  0.67321891     0.16100
O1250       O  0.17490953  0.44558109  0.63102829    -0.60800
H1251       H  0.04859442  0.40150832  0.55645557     0.16100
O1252       O  0.00506849  0.42956567  0.59862150    -0.60900
H1253       H  0.01100992  0.45181158  0.57819232     0.43100
H1254       H  0.16729937  0.41841273  0.64719103     0.43100
C1255       C  0.11561413  0.42884382  0.89359527    -0.06000
C1256       C  0.10033164  0.45976282  0.90354015    -0.33400
C1257       C  0.08946091  0.48261139  0.87671908     0.35800
C1258       C  0.09301168  0.47414850  0.83912625    -0.06400
C1259       C  0.11277579  0.44707158  0.82906584    -0.33300
C1260       C  0.12441393  0.42462224  0.85618782     0.35700
H1261       H  0.09549601  0.46535366  0.93232914     0.16100
O1262       O  0.07186691  0.51023661  0.88751770    -0.60800
H1263       H  0.11558761  0.44010022  0.80021361     0.16100
O1264       O  0.14049837  0.39567394  0.84567471    -0.60900
H1265       H  0.17475657  0.41629812  0.84378330     0.43100
H1266       H  0.09934772  0.54198921  0.89035085     0.43100
C1267       C  0.08489529  0.60497318  0.64975428    -0.06000
C1268       C  0.12473869  0.64751566  0.65874520    -0.33400
C1269       C  0.14860938  0.68182004  0.63165414     0.35800
C1270       C  0.13271859  0.67395452  0.59463731    -0.06400
C1271       C  0.09429882  0.63057235  0.58530769    -0.33300
C1272       C  0.07085384  0.59609753  0.61220079     0.35700
H1273       H  0.13637402  0.65517479  0.68713687     0.16100
O1274       O  0.18657756  0.72351428  0.64209572    -0.60800
H1275       H  0.08201706  0.62336126  0.55704500     0.16100
O1276       O  0.03335118  0.55427215  0.60138133    -0.60900
H1277       H  0.04615262  0.53367702  0.59641061     0.43100
H1278       H  0.17391140  0.74357188  0.64972634     0.43100
C1279       C  0.13397879  0.68760810  0.89529639    -0.06000
C1280       C  0.10203398  0.69632591  0.87718639    -0.33400
C1281       C  0.08135488  0.67350829  0.84382933     0.35800
C1282       C  0.09162507  0.64049108  0.82881204    -0.06400
C1283       C  0.12481962  0.63319083  0.84647847    -0.33300
C1284       C  0.14609042  0.65662853  0.87924440     0.35700
H1285       H  0.09223451  0.71990666  0.88941051     0.16100
O1286       O  0.04819722  0.68061595  0.82799586    -0.60800
H1287       H  0.13290635  0.60767583  0.83563755     0.16100
O1288       O  0.17714423  0.64733027  0.89631492    -0.60900
H1289       H  0.15838842  0.62191168  0.91423079     0.43100
H1290       H  0.06570601  0.70815487  0.81156199     0.43100
C1291       C  0.33402765  0.89442240  0.60307265    -0.06000
C1292       C  0.34856115  0.86905840  0.62478478    -0.33400
C1293       C  0.37268740  0.88768360  0.65777668     0.35800
C1294       C  0.38051952  0.93114877  0.67033729    -0.06400
C1295       C  0.36607826  0.95654781  0.64875009    -0.33300
C1296       C  0.34377165  0.93891127  0.61492961     0.35700
H1297       H  0.34100792  0.83459464  0.61615160     0.16100
O1298       O  0.38717535  0.86258775  0.67814160    -0.60800
H1299       H  0.37328690  0.99079425  0.65766090     0.16100
O1300       O  0.32944642  0.96424227  0.59472433    -0.60900
H1301       H  0.35771771  0.98847615  0.58165587     0.43100
H1302       H  0.41794864  0.87098820  0.66772515     0.43100
C1303       C  0.32420703  0.86202867  0.89754903    -0.06000
C1304       C  0.33592689  0.84197399  0.86835069    -0.33400
C1305       C  0.37085426  0.87051606  0.84279802     0.35800
C1306       C  0.39524312  0.91961488  0.84700442    -0.06400
C1307       C  0.38381364  0.93921857  0.87665091    -0.33300
C1308       C  0.34847080  0.91108490  0.90144667     0.35700
H1309       H  0.31804728  0.80423749  0.86540914     0.16100
O1310       O  0.38139010  0.85012572  0.81436615    -0.60800
H1311       H  0.40224024  0.97682761  0.88063403     0.16100
O1312       O  0.33994124  0.93184463  0.93084154    -0.60900
H1313       H  0.31893303  0.94227006  0.92115306     0.43100
H1314       H  0.40417686  0.84247962  0.82478750     0.43100
C1315       C  0.54140388  0.92057005  0.66479725    -0.06000
C1316       C  0.55726169  0.89031228  0.67453727    -0.33400
C1317       C  0.57541761  0.87383625  0.64767430     0.35800
C1318       C  0.57740637  0.88723748  0.61027302    -0.06400
C1319       C  0.56041389  0.91642252  0.60036557    -0.33300
C1320       C  0.54197080  0.93264268  0.62714869     0.35700
H1321       H  0.55787814  0.88130261  0.70323801     0.16100
O1322       O  0.59228168  0.84561780  0.65846672    -0.60800
H1323       H  0.56075504  0.92610695  0.57170467     0.16100
O1324       O  0.52585456  0.96146619  0.61626748    -0.60900
H1325       H  0.49187694  0.94049186  0.61293232     0.43100
H1326       H  0.62524013  0.86738284  0.66508803     0.43100
C1327       C  0.54319017  0.92403431  0.86332738    -0.06000
C1328       C  0.51280166  0.87523316  0.86226463    -0.33400
C1329       C  0.52068279  0.84505189  0.88411747     0.35800
C1330       C  0.56016157  0.86333669  0.90694586    -0.06400
C1331       C  0.59085369  0.91214410  0.90768875    -0.33300
C1332       C  0.58233455  0.94239456  0.88651033     0.35700
H1333       H  0.48303271  0.86039993  0.84403240     0.16100
O1334       O  0.48963714  0.79776128  0.88282630    -0.60800
H1335       H  0.62112109  0.92714127  0.92543247     0.16100
O1336       O  0.61395034  0.98956744  0.88705155    -0.60900
H1337       H  0.60474752  0.00182986  0.90840152     0.43100
H1338       H  0.50307551  0.78527471  0.86486755     0.43100
C1339       C  0.64007687  0.08452135  0.67638015    -0.06000
C1340       C  0.64224158  0.12334425  0.65868753    -0.33400
C1341       C  0.66361159  0.13835252  0.62399266     0.35800
C1342       C  0.68233059  0.11393058  0.60599504    -0.06400
C1343       C  0.67950882  0.07480760  0.62306017    -0.33300
C1344       C  0.65943678  0.06045310  0.65808967     0.35700
H1345       H  0.62691128  0.14184795  0.67155671     0.16100
O1346       O  0.66655789  0.17728907  0.60800449    -0.60800
H1347       H  0.69489205  0.05650893  0.60991583     0.16100
O1348       O  0.65789758  0.02190831  0.67354570    -0.60900
H1349       H  0.68743610  0.03436438  0.68739695     0.43100
H1350       H  0.63809706  0.16523733  0.59279358     0.43100
C1351       C  0.66348619  0.10742750  0.82663385    -0.06000
C1352       C  0.66529139  0.14886723  0.83839743    -0.33400
C1353       C  0.69226865  0.17401220  0.86863857     0.35800
C1354       C  0.71877321  0.15829895  0.88710833    -0.06400
C1355       C  0.72297323  0.12172039  0.87136496    -0.33300
C1356       C  0.69549019  0.09621916  0.84137834     0.35700
H1357       H  0.64227403  0.15947317  0.82659972     0.16100
O1358       O  0.68832548  0.21048100  0.88220154    -0.60800
H1359       H  0.74468339  0.11012698  0.88415751     0.16100
O1360       O  0.69701986  0.05784928  0.82928728    -0.60900
H1361       H  0.72176570  0.07006380  0.81014124     0.43100
H1362       H  0.70558482  0.23660376  0.86446136     0.43100
C1363       C  0.47218460  0.07998697  0.65119269    -0.06000
C1364       C  0.44203429  0.09601990  0.66096076    -0.33400
C1365       C  0.42356066  0.11184849  0.63370198     0.35800
C1366       C  0.43450090  0.11085782  0.59611691    -0.06400
C1367       C  0.46437310  0.09493310  0.58630322    -0.33300
C1368       C  0.48399846  0.08055110  0.61329430     0.35700
H1369       H  0.43211674  0.09553069  0.68956956     0.16100
O1370       O  0.39445149  0.12776653  0.64397225    -0.60800
H1371       H  0.47371512  0.09498274  0.55758918     0.16100
O1372       O  0.51395548  0.06612724  0.60189852    -0.60900
H1373       H  0.54529997  0.09472295  0.60230909     0.43100
H1374       H  0.36276720  0.09967534  0.64379213     0.43100
C1375       C  0.45934277  0.09913356  0.82531376    -0.06000
C1376       C  0.49685595  0.14032485  0.84000300    -0.33400
C1377       C  0.49093585  0.16337541  0.87004336     0.35800
C1378       C  0.44648324  0.14610578  0.88599681    -0.06400
C1379       C  0.40822818  0.10704410  0.86949625    -0.33300
C1380       C  0.41436530  0.08347354  0.83961150     0.35700
H1381       H  0.53180650  0.15361517  0.82948934     0.16100
O1382       O  0.52942824  0.20180801  0.88436539    -0.60800
H1383       H  0.37358930  0.09326203  0.88084115     0.16100
O1384       O  0.37637032  0.04439404  0.82550078    -0.60900
H1385       H  0.36992730  0.01869284  0.84293365     0.43100
H1386       H  0.54348126  0.18900821  0.90141799     0.43100
loop_ 
_geom_bond_atom_site_label_1 
_geom_bond_atom_site_label_2 
_geom_bond_distance 
_geom_bond_site_symmetry_2 
_ccdc_geom_bond_type 
O1            C9   1.278       .  A
O1          Co21   2.013   1_565  S
O2           C10   1.254       .  A
O2          Co22   1.968   1_565  S
O3           C11   1.271       .  A
O3          Co23   1.896       .  S
O4           C12   1.257       .  A
O4          Co24   1.949       .  S
O5           C11   1.292       .  A
O5          Co22   2.100   1_565  S
O6           C12   1.278       .  A
O6          Co21   2.041   1_565  S
O7           C10   1.264       .  A
O7          Co24   1.990       .  S
O8            C9   1.270       .  A
O8          Co23   1.974       .  S
C9          C613   1.472       .  S
C10         C622   1.467       .  S
C11         C601   1.463       .  S
C12         C634   1.478       .  S
O13          C26   1.253       .  A
O13         Co21   1.943       .  S
O14          C27   1.255       .  A
O14         Co22   1.849       .  S
O15          C28   1.266       .  A
O15         Co23   2.025   1_545  S
O16          C29   1.272       .  A
O16         Co24   2.007   1_545  S
O17          C29   1.267       .  A
O17         Co22   1.962       .  S
O18          C28   1.256       .  A
O18         Co21   1.973       .  S
O19          C26   1.276       .  A
O19         Co24   2.044   1_545  S
O20          C27   1.301       .  A
O20         Co23   2.128   1_545  S
Co21         O25   1.997       .  S
Co22         O25   1.950       .  S
Co23         O25   2.022   1_565  S
Co24         O25   2.049   1_565  S
C26         C658   1.482       .  S
C27         C670   1.467       .  S
C28         C682   1.495       .  S
C29         C646   1.477       .  S
O30          C38   1.263       .  A
O30         Co50   1.873       .  S
O31          C39   1.261       .  A
O31         Co51   1.956       .  S
O32          C40   1.261       .  A
O32         Co52   1.992   1_655  S
O33          C41   1.276       .  A
O33         Co53   2.024   1_655  S
O34          C40   1.261       .  A
O34         Co51   1.970       .  S
O35          C41   1.270       .  A
O35         Co50   1.979       .  S
O36          C39   1.271       .  A
O36         Co53   2.011   1_655  S
O37          C38   1.296       .  A
O37         Co52   2.116   1_655  S
C38         C514   1.467       .  S
C39         C526   1.478       .  S
C40         C502   1.482       .  S
C41         C538   1.491       .  S
O42          C55   1.260       .  A
O42         Co50   1.975   1_455  S
O43          C56   1.273       .  A
O43         Co51   1.990   1_455  S
O44          C57   1.268       .  A
O44         Co52   1.908       .  S
O45          C58   1.269       .  A
O45         Co53   1.974       .  S
O46          C58   1.270       .  A
O46         Co51   2.007   1_455  S
O47          C57   1.293       .  A
O47         Co50   2.098   1_455  S
O48          C55   1.261       .  A
O48         Co53   1.979       .  S
O49          C56   1.279       .  A
O49         Co52   1.988       .  S
Co50         O54   1.978   1_655  S
Co51         O54   2.013   1_655  S
Co52         O54   2.020       .  S
Co53         O54   2.051       .  S
C55         C565   1.466       .  S
C56         C574   1.478       .  S
C57         C589   1.479       .  S
C58         C550   1.482       .  S
O59          C67   1.268       .  A
O59         Co79   1.993       .  S
O60          C68   1.263       .  A
O60         Co80   1.988       .  S
O61          C69   1.269       .  A
O61         Co81   2.029       .  S
O62          C70   1.266       .  A
O62         Co82   1.981       .  S
O63          C69   1.251       .  A
O63         Co80   1.950       .  S
O64          C70   1.271       .  A
O64         Co79   1.987       .  S
O65          C68   1.264       .  A
O65         Co82   1.973       .  S
O66          C67   1.258       .  A
O66         Co81   1.979       .  S
C67         C421   1.471       .  S
C68         C430   1.474       .  S
C69         C409   1.485       .  S
C70         C442   1.484       .  S
O71          C84   1.265       .  A
O71         Co79   1.989       .  S
O72          C85   1.269       .  A
O72         Co80   1.935       .  S
O73          C86   1.260       .  A
O73         Co81   1.941       .  S
O74          C87   1.255       .  A
O74         Co82   1.963       .  S
O75          C87   1.255       .  A
O75         Co80   1.985       .  S
O76          C86   1.279       .  A
O76         Co79   2.028       .  S
O77          C84   1.266       .  A
O77         Co82   1.984       .  S
O78          C85   1.278       .  A
O78         Co81   2.018       .  S
Co79         O83   2.065       .  S
Co80         O83   1.966       .  S
Co81         O83   2.083       .  S
Co82         O83   2.049       .  S
C84         C466   1.484       .  S
C85         C481   1.461       .  S
C86         C490   1.473       .  S
C87         C454   1.464       .  S
O88          C96   1.255       .  A
O88        Co108   1.984       .  S
O89          C97   1.272   1_556  A
O89        Co109   1.979       .  S
O90          C98   1.289       .  A
O90        Co110   2.078       .  S
O91          C99   1.282       .  A
O91        Co111   2.062       .  S
O92          C98   1.272       .  A
O92        Co802   1.895       .  S
O93         C792   1.255       .  A
O93        Co108   1.954       .  S
O94          C97   1.276       .  A
O94        Co111   2.029       .  S
O95          C96   1.255       .  A
O95        Co110   1.983       .  S
C96         C517   1.470       .  S
C97         C370   1.507       .  S
C98         C445   1.472       .  S
C99         O786   1.254   1_554  A
C99         C358   1.498       .  S
O100        C113   1.271       .  A
O100       Co801   2.033   1_554  S
O101        C807   1.293       .  A
O101       Co109   2.122       .  S
O102        C115   1.266       .  A
O102       Co110   1.967       .  S
O103        C116   1.259       .  A
O103       Co111   1.968       .  S
O104        C116   1.264       .  A
O104       Co109   2.003   1_554  S
O105        C115   1.283       .  A
O105       Co108   2.052       .  S
O106        C113   1.254       .  A
O106       Co111   1.951       .  S
O107        C114   1.256       .  A
O107       Co110   1.877       .  S
Co108       O793   2.036       .  S
Co108       O805   2.047       .  S
Co109       O785   1.897       .  S
Co109       O112   2.027   1_556  S
Co110       O805   1.993       .  S
Co111       O112   2.030       .  S
O112       Co801   2.041   1_554  S
O112       Co803   1.987   1_554  S
C113        C505   1.476       .  S
C114        O794   1.292       .  A
C114        C397   1.463       .  S
C115        C385   1.499       .  S
C116        C433   1.479       .  S
O117        C125   1.255       .  A
O117       Co137   1.955       .  S
O118        C126   1.267   1_556  A
O118       Co138   1.963       .  S
O119        C127   1.294       .  A
O119       Co139   2.108       .  S
O120        C128   1.273       .  A
O120       Co140   2.030       .  S
O121        C127   1.266       .  A
O121       Co831   1.896       .  S
O122        C821   1.260       .  A
O122       Co137   1.970       .  S
O123        C126   1.287       .  A
O123       Co140   2.064       .  S
O124        C125   1.275       .  A
O124       Co139   2.028       .  S
C125        C661   1.483       .  S
C126        C334   1.508       .  S
C127        C541   1.480       .  S
C128        O815   1.263   1_554  A
C128        C322   1.496       .  S
O129        C142   1.273       .  A
O129       Co830   2.031   1_554  S
O130        C836   1.295   1_554  A
O130       Co138   2.109   1_554  S
O131        C144   1.265       .  A
O131       Co139   1.973       .  S
O132        C145   1.243       .  A
O132       Co140   1.943       .  S
O133        C145   1.264       .  A
O133       Co138   2.032   1_554  S
O134        C144   1.278       .  A
O134       Co137   2.045       .  S
O135        C142   1.252       .  A
O135       Co140   1.940       .  S
O136        C143   1.271       .  A
O136       Co139   1.903       .  S
Co137       O822   2.035       .  S
Co137       O834   2.036       .  S
Co138       O814   1.895       .  S
Co138       O141   2.016   1_556  S
Co139       O834   2.012       .  S
Co140       O141   2.010       .  S
O141       Co830   2.039   1_554  S
O141       Co832   2.007   1_554  S
C142        C649   1.464       .  S
C143        O823   1.297       .  A
C143        C382   1.488       .  S
C144        C346   1.502       .  S
C145        C529   1.468       .  S
O146        C154   1.253       .  A
O146       Co166   1.965       .  S
O147        C155   1.272   1_556  A
O147       Co167   1.985       .  S
O148        C156   1.297       .  A
O148       Co168   2.103       .  S
O149        C157   1.282       .  A
O149       Co169   2.058       .  S
O150        C156   1.271       .  A
O150       Co860   1.893       .  S
O151        C850   1.259       .  A
O151       Co166   1.954       .  S
O152        C155   1.275       .  A
O152       Co169   2.020       .  S
O153        C154   1.257       .  A
O153       Co168   2.003       .  S
C154        C610   1.474       .  S
C155        C361   1.501       .  S
C156        C586   1.473       .  S
C157        O844   1.261   1_554  A
C157        C286   1.498       .  S
O158        C171   1.269       .  A
O158       Co859   2.028   1_554  S
O159        C865   1.296       .  A
O159       Co167   2.122       .  S
O160        C173   1.269       .  A
O160       Co168   1.969       .  S
O161        C174   1.252       .  A
O161       Co169   1.953       .  S
O162        C174   1.270       .  A
O162       Co167   2.014   1_554  S
O163        C173   1.283       .  A
O163       Co166   2.043       .  S
O164        C171   1.251       .  A
O164       Co169   1.951       .  S
O165        C172   1.259       .  A
O165       Co168   1.873       .  S
Co166       O851   2.030       .  S
Co166       O863   2.034       .  S
Co167       O843   1.895       .  S
Co167       O170   2.013   1_556  S
Co168       O863   1.999       .  S
Co169       O170   2.019       .  S
O170       Co859   2.029   1_554  S
O170       Co861   2.004   1_554  S
C171        C598   1.468       .  S
C172        O852   1.298       .  A
C172        C301   1.489       .  S
C173        C310   1.497       .  S
C174        C577   1.474       .  S
O175        C183   1.275       .  A
O175       Co195   2.027       .  S
O176        C184   1.241       .  A
O176       Co196   1.955       .  S
O177        C185   1.263       .  A
O177       Co197   1.873       .  S
O178        C186   1.245       .  A
O178       Co198   1.929       .  S
O179        C878   1.298   1_554  A
O179       Co196   2.097       .  S
O180        C186   1.267       .  A
O180       Co888   2.023       .  S
O181        C184   1.248       .  A
O181       Co198   1.990       .  S
O182        C183   1.271       .  A
O182       Co197   1.981       .  S
C183        C313   1.497       .  S
C184        C457   1.472       .  S
C185        O872   1.298       .  A
C185        C274   1.471       .  S
C186        C625   1.467       .  S
O187        C893   1.257       .  A
O187       Co195   1.958       .  S
O188        C201   1.238       .  A
O188       Co889   1.903       .  S
O189        C202   1.260       .  A
O189       Co197   1.998       .  S
O190        C203   1.286       .  A
O190       Co198   2.068       .  S
O191        C203   1.260   1_556  A
O191       Co196   1.945   1_556  S
O192        C202   1.255       .  A
O192       Co195   1.962       .  S
O193        C200   1.275       .  A
O193       Co198   2.040       .  S
O194        C201   1.274       .  A
O194       Co197   2.061       .  S
Co195       O873   2.023       .  S
Co195       O892   2.060       .  S
Co196       O881   1.903   1_554  S
Co196       O199   2.064       .  S
Co197       O892   1.988       .  S
Co198       O199   2.075       .  S
O199       Co888   2.066       .  S
O199       Co890   1.991   1_554  S
C200        O880   1.258   1_554  A
C200        C325   1.494       .  S
C201        C469   1.482       .  S
C202        C637   1.469       .  S
C203        C373   1.507       .  S
O204        C212   1.276       .  A
O204       Co224   1.887       .  S
O205        C213   1.267       .  A
O205       Co225   1.990       .  S
O206        C214   1.301       .  A
O206       Co226   2.062       .  S
O207        C215   1.267       .  A
O207       Co227   2.024       .  S
O208        C214   1.270       .  A
O208       Co918   1.889       .  S
O209        C908   1.262       .  A
O209       Co224   1.992       .  S
O210        C213   1.270   1_554  A
O210       Co227   2.013       .  S
O211        C212   1.297       .  A
O211       Co226   2.041       .  S
C212        C562   1.467       .  S
C213        C265   1.506       .  S
C214        C493   1.487       .  S
C215        O902   1.262   1_554  A
C215        C337   1.507       .  S
O216        C229   1.269       .  A
O216       Co917   2.006   1_554  S
O217        C923   1.249       .  A
O217       Co225   1.987       .  S
O218        C231   1.248       .  A
O218       Co226   1.973       .  S
O219        C232   1.258       .  A
O219       Co227   1.959       .  S
O220        C232   1.261       .  A
O220       Co225   1.988   1_554  S
O221        C231   1.247       .  A
O221       Co224   1.993       .  S
O222        C229   1.259       .  A
O222       Co227   1.964       .  S
O223        C230   1.250       .  A
O223       Co226   1.979       .  S
Co224       O909   1.998       .  S
Co224       O921   1.942       .  S
Co225       O901   1.893       .  S
Co225       O228   1.938       .  S
Co226       O921   2.267       .  S
Co227       O228   2.080   1_554  S
O228       Co917   1.940       .  S
O228       Co919   2.268       .  S
C229        C553   1.480       .  S
C230        O910   1.249       .  A
C230        C277   1.479       .  S
C231        C298   1.482       .  S
C232        C478   1.466       .  S
O233        C241   1.281       .  A
O233       Co253   2.043       .  S
O234        C242   1.267       .  A
O234       Co254   2.033   1_554  S
O235        C243   1.263       .  A
O235       Co255   1.892       .  S
O236        C244   1.252       .  A
O236       Co256   1.935       .  S
O237        C936   1.292   1_554  A
O237       Co254   2.103   1_554  S
O238        C244   1.271       .  A
O238       Co946   2.015   1_554  S
O239        C242   1.247       .  A
O239       Co256   1.951       .  S
O240        C241   1.269       .  A
O240       Co255   1.979       .  S
C241        C349   1.503       .  S
C242        C406   1.479       .  S
C243        O930   1.289       .  A
C243        C394   1.464       .  S
C244        C673   1.467       .  S
O245        C951   1.263       .  A
O245       Co253   1.969       .  S
O246        C259   1.269       .  A
O246       Co947   1.905       .  S
O247        C260   1.262       .  A
O247       Co255   2.005       .  S
O248        C261   1.282       .  A
O248       Co256   2.043       .  S
O249        C261   1.265   1_556  A
O249       Co254   1.973       .  S
O250        C260   1.260       .  A
O250       Co253   1.988       .  S
O251        C258   1.273       .  A
O251       Co256   2.036       .  S
O252        C259   1.293       .  A
O252       Co255   2.088       .  S
Co253       O931   2.021       .  S
Co253       O950   2.047       .  S
Co254       O939   1.903       .  S
Co254       O257   2.034   1_556  S
Co255       O950   2.007       .  S
Co256       O257   2.040       .  S
O257       Co946   2.046   1_554  S
O257       Co948   2.003   1_554  S
C258        O938   1.262   1_554  A
C258        C289   1.499       .  S
C259        C418   1.480       .  S
C260        C685   1.495       .  S
C261        C262   1.503       .  S
C262        C263   1.403       .  A
C262        C267   1.417   1_554  A
C263        C264   1.404       .  A
C263        H961   1.083       .  S
C264        C265   1.420   1_554  A
C264        O962   1.372       .  S
C265        C266   1.408       .  A
C266        C267   1.412       .  A
C266        H270   1.083       .  S
C267        O271   1.371       .  S
H268        C956   1.083       .  S
O269        C957   1.372       .  S
O269        H273   0.992       .  S
O271        H272   0.991       .  S
C274        C275   1.401       .  A
C274        C972   1.406       .  A
C275        C276   1.392       .  A
C275        H280   1.084       .  S
C276        C277   1.411       .  A
C276        O281   1.372       .  S
C277        C971   1.407       .  A
C278        C279   1.404       .  A
C278        C970   1.406   1_554  A
C278        H282   1.083       .  S
C279        C967   1.407   1_554  A
C279        O283   1.369       .  S
O281        H285   0.991       .  S
O283        H284   0.991       .  S
C286        C287   1.407       .  A
C286        C291   1.415   1_554  A
C287        C288   1.410   1_565  A
C287        H292   1.083       .  S
C288        C289   1.417       .  A
C288        O293   1.371       .  S
C289        C290   1.405   1_554  A
C290        C291   1.402   1_545  A
C290        H294   1.084       .  S
C291        O295   1.372       .  S
O293        H297   0.990       .  S
O295        H296   0.992       .  S
C298        C299   1.402       .  A
C298        C996   1.410       .  A
C299        C300   1.392       .  A
C299        H304   1.084       .  S
C300        C301   1.414       .  A
C300        O305   1.372       .  S
C301        C995   1.410       .  A
C302        C303   1.404       .  A
C302        C994   1.408       .  A
C302        H306   1.084   1_556  S
C303        C991   1.407       .  A
C303        O307   1.371   1_556  S
O305        H309   0.992       .  S
O307        H308   0.991       .  S
C310        C311   1.407       .  A
C310        C315   1.415       .  A
C311        C312   1.405       .  A
C311        H316   1.083       .  S
C312        C313   1.417       .  A
C312        O317   1.372       .  S
C313        C314   1.406       .  A
C314        C315   1.404       .  A
C314       H1011   1.083       .  S
C315       O1012   1.372       .  S
O317        H321   0.992       .  S
H318       C1007   1.083       .  S
O319       C1008   1.372       .  S
O319        H320   0.991       .  S
C322        C323   1.408       .  A
C322        C327   1.411   1_554  A
C323        C324   1.407   1_545  A
C323        H328   1.083       .  S
C324        C325   1.414       .  A
C324       O1022   1.372       .  S
C325        C326   1.408   1_554  A
C326        C327   1.406   1_565  A
C326        H330   1.084       .  S
C327        O331   1.371       .  S
O329       C1017   1.371       .  S
O329        H333   0.991       .  S
O331        H332   0.991       .  S
C334        C335   1.407       .  A
C334       C1032   1.419   1_554  A
C335        C336   1.410   1_655  A
C335        H340   1.083       .  S
C336        C337   1.418       .  A
C336        O341   1.371       .  S
C337       C1031   1.406   1_554  A
C338        C339   1.411   1_455  A
C338       C1030   1.407       .  A
C338        H342   1.083       .  S
C339       C1027   1.419       .  A
C339        O343   1.371       .  S
O341        H345   0.991       .  S
O343        H344   0.991       .  S
C346        C347   1.409       .  A
C346        C351   1.413       .  A
C347        C348   1.406       .  A
C347        H352   1.083       .  S
C348        C349   1.415       .  A
C348        O353   1.372       .  S
C349        C350   1.410       .  A
C350        C351   1.408       .  A
C350        H354   1.083       .  S
C351        O355   1.371       .  S
O353        H357   0.993       .  S
O355        H356   0.991       .  S
C358        C359   1.403       .  A
C358       C1056   1.419   1_654  A
C359        C360   1.406   1_655  A
C359        H364   1.083       .  S
C360        C361   1.420       .  A
C360        O365   1.372       .  S
C361       C1055   1.405   1_554  A
C362        C363   1.408       .  A
C362       C1054   1.405       .  A
C362        H366   1.083       .  S
C363       C1051   1.418   1_455  A
C363        O367   1.372   1_455  S
O365        H369   0.990       .  S
O367        H368   0.991       .  S
C370        C371   1.407   1_554  A
C370        C375   1.418       .  A
C371        C372   1.407       .  A
C371        H376   1.083       .  S
C372        C373   1.420   1_556  A
C372        O377   1.373       .  S
C373        C374   1.406       .  A
C374        C375   1.412       .  A
C374       H1071   1.083       .  S
C375       O1072   1.372       .  S
O377        H381   0.994       .  S
H378       C1067   1.083       .  S
O379       C1068   1.372       .  S
O379        H380   0.993       .  S
C382        C383   1.402       .  A
C382       C1080   1.410       .  A
C383        C384   1.407       .  A
C383        H388   1.083       .  S
C384        C385   1.419       .  A
C384        O389   1.372       .  S
C385       C1079   1.407       .  A
C386        C387   1.403       .  A
C386       C1078   1.407       .  A
C386        H390   1.083       .  S
C387       C1075   1.409       .  A
C387        O391   1.372   1_554  S
O389        H393   0.992       .  S
O391        H392   0.992   1_556  S
C394        C395   1.397       .  A
C394       C1092   1.409       .  A
C395        C396   1.387       .  A
C395        H400   1.085       .  S
C396        C397   1.404       .  A
C396        O401   1.369       .  S
C397       C1091   1.403       .  A
C398        C399   1.408       .  A
C398       C1090   1.404   1_554  A
C398        H402   1.084       .  S
C399       C1087   1.410   1_554  A
C399        O403   1.371       .  S
O401        H405   0.992       .  S
O403        H404   0.991       .  S
C406        C407   1.401       .  A
C406        C411   1.410       .  A
C407        C408   1.410       .  A
C407        H412   1.083       .  S
C408        C409   1.422       .  A
C408        O413   1.373       .  S
C409        C410   1.399       .  A
C410        C411   1.396       .  A
C410        H414   1.084       .  S
C411        O415   1.371       .  S
O413        H417   0.992       .  S
O415        H416   0.991       .  S
C418        C419   1.408       .  A
C418        C423   1.410       .  A
C419        C420   1.400       .  A
C419        H424   1.084       .  S
C420        C421   1.401       .  A
C420        O425   1.371       .  S
C421        C422   1.406       .  A
C422        C423   1.401       .  A
C422        H426   1.084       .  S
C423        O427   1.374       .  S
O425        H429   0.991       .  S
O427        H428   0.992       .  S
C430        C431   1.407       .  A
C430        C435   1.407       .  A
C431        C432   1.402       .  A
C431        H436   1.084       .  S
C432        C433   1.410       .  A
C432        O437   1.371       .  S
C433        C434   1.405       .  A
C434        C435   1.392       .  A
C434        H438   1.083       .  S
C435        O439   1.372       .  S
O437        H441   0.991       .  S
O439        H440   0.991       .  S
C442        C443   1.402       .  A
C442        C447   1.422       .  A
C443        C444   1.406       .  A
C443        H448   1.083       .  S
C444        C445   1.415       .  A
C444        O449   1.372       .  S
C445        C446   1.392       .  A
C446        C447   1.390       .  A
C446        H450   1.084       .  S
C447        O451   1.371       .  S
O449        H453   0.993       .  S
O451        H452   0.990       .  S
C454        C455   1.401       .  A
C454        C459   1.410       .  A
C455        C456   1.398       .  A
C455        H460   1.084       .  S
C456        C457   1.411       .  A
C456        O461   1.371       .  S
C457        C458   1.398       .  A
C458        C459   1.393       .  A
C458        H462   1.084       .  S
C459        O463   1.366       .  S
O461        H465   0.992       .  S
O463        H464   0.991       .  S
C466        C467   1.409       .  A
C466        C471   1.414       .  A
C467        C468   1.406       .  A
C467        H472   1.083       .  S
C468        C469   1.404       .  A
C468        O473   1.369       .  S
C469        C470   1.409       .  A
C470        C471   1.389       .  A
C470        H474   1.084       .  S
C471        O475   1.374       .  S
O473        H477   0.992       .  S
O475        H476   0.992       .  S
C478        C479   1.405       .  A
C478        C483   1.408       .  A
C479        C480   1.391       .  A
C479        H484   1.084       .  S
C480        C481   1.409       .  A
C480        O485   1.373       .  S
C481        C482   1.401       .  A
C482        C483   1.391       .  A
C482        H486   1.083       .  S
C483        O487   1.371       .  S
O485        H489   0.991       .  S
O487        H488   0.993       .  S
C490        C491   1.396       .  A
C490        C495   1.413       .  A
C491        C492   1.391       .  A
C491        H496   1.084       .  S
C492        C493   1.416       .  A
C492        O497   1.372       .  S
C493        C494   1.406       .  A
C494        C495   1.408       .  A
C494        H498   1.083       .  S
C495        O499   1.372       .  S
O497        H501   0.993       .  S
O499        H500   0.991       .  S
C502        C503   1.411       .  A
C502        C507   1.406       .  A
C503        C504   1.400       .  A
C503        H508   1.084       .  S
C504        C505   1.404       .  A
C504        O509   1.372       .  S
C505        C506   1.408       .  A
C506        C507   1.401       .  A
C506        H510   1.084       .  S
C507        O511   1.371       .  S
O509        H513   0.991       .  S
O511        H512   0.992       .  S
C514        C515   1.404       .  A
C514        C519   1.406       .  A
C515        C516   1.403       .  A
C515        H520   1.084       .  S
C516        C517   1.409       .  A
C516        O521   1.371       .  S
C517        C518   1.402       .  A
C518        C519   1.390       .  A
C518        H522   1.084       .  S
C519        O523   1.372       .  S
O521        H525   0.993       .  S
O523        H524   0.990       .  S
C526        C527   1.413       .  A
C526        C531   1.406       .  A
C527        C528   1.399       .  A
C527        H532   1.083       .  S
C528        C529   1.401       .  A
C528        O533   1.372       .  S
C529        C530   1.407       .  A
C530        C531   1.396       .  A
C530        H534   1.084       .  S
C531        O535   1.372       .  S
O533        H537   0.991       .  S
O535        H536   0.992       .  S
C538        C539   1.405       .  A
C538        C543   1.418       .  A
C539        C540   1.405       .  A
C539        H544   1.083       .  S
C540        C541   1.410       .  A
C540        O545   1.371       .  S
C541        C542   1.400       .  A
C542        C543   1.401       .  A
C542        H546   1.084       .  S
C543        O547   1.372       .  S
O545        H549   0.991       .  S
O547        H548   0.991       .  S
C550        C551   1.403       .  A
C550        C555   1.416       .  A
C551        C552   1.396       .  A
C551        H556   1.083       .  S
C552        C553   1.414       .  A
C552        O557   1.372       .  S
C553        C554   1.401       .  A
C554        C555   1.399       .  A
C554        H558   1.084       .  S
C555        O559   1.375       .  S
O557        H561   0.991       .  S
O559        H560   0.992       .  S
C562        C563   1.403       .  A
C562        C567   1.406       .  A
C563        C564   1.389       .  A
C563        H568   1.084       .  S
C564        C565   1.406       .  A
C564        O569   1.372       .  S
C565        C566   1.406       .  A
C566        C567   1.401       .  A
C566        H570   1.083       .  S
C567        O571   1.371       .  S
O569        H573   0.990       .  S
O571        H572   0.991       .  S
C574        C575   1.399       .  A
C574        C579   1.418       .  A
C575        C576   1.398       .  A
C575        H580   1.083       .  S
C576        C577   1.417       .  A
C576        O581   1.372       .  S
C577        C578   1.395       .  A
C578        C579   1.392       .  A
C578        H582   1.084       .  S
C579        O583   1.370       .  S
O581        H585   0.991       .  S
O583        H584   0.990       .  S
C586        C587   1.402       .  A
C586        C591   1.406       .  A
C587        C588   1.406       .  A
C587        H592   1.084       .  S
C588        C589   1.412       .  A
C588        O593   1.371       .  S
C589        C590   1.404       .  A
C590        C591   1.398       .  A
C590        H594   1.084       .  S
C591        O595   1.372       .  S
O593        H597   0.990       .  S
O595        H596   0.991       .  S
C598        C599   1.405       .  A
C598        C603   1.406       .  A
C599        C600   1.398       .  A
C599        H604   1.084       .  S
C600        C601   1.405       .  A
C600        O605   1.372       .  S
C601        C602   1.402       .  A
C602        C603   1.397       .  A
C602        H606   1.084       .  S
C603        O607   1.370       .  S
O605        H609   0.989       .  S
O607        H608   0.992       .  S
C610        C611   1.406       .  A
C610        C615   1.409       .  A
C611        C612   1.405       .  A
C611        H616   1.083       .  S
C612        C613   1.409       .  A
C612        O617   1.371       .  S
C613        C614   1.401       .  A
C614        C615   1.392       .  A
C614        H618   1.083       .  S
C615        O619   1.372       .  S
O617        H621   0.991       .  S
O619        H620   0.992       .  S
C622        C623   1.398       .  A
C622        C627   1.414       .  A
C623        C624   1.394       .  A
C623        H628   1.084       .  S
C624        C625   1.413       .  A
C624        O629   1.372       .  S
C625        C626   1.398       .  A
C626        C627   1.398       .  A
C626        H630   1.083       .  S
C627        O631   1.373       .  S
O629        H633   0.991       .  S
O631        H632   0.991       .  S
C634        C635   1.409       .  A
C634        C639   1.408       .  A
C635        C636   1.399       .  A
C635        H640   1.083       .  S
C636        C637   1.404       .  A
C636        O641   1.372       .  S
C637        C638   1.405       .  A
C638        C639   1.398       .  A
C638        H642   1.084       .  S
C639        O643   1.371       .  S
O641        H645   0.991       .  S
O643        H644   0.991       .  S
C646        C647   1.401       .  A
C646        C651   1.419       .  A
C647        C648   1.396       .  A
C647        H652   1.084       .  S
C648        C649   1.409       .  A
C648        O653   1.372       .  S
C649        C650   1.396       .  A
C650        C651   1.397       .  A
C650        H654   1.084       .  S
C651        O655   1.372       .  S
O653        H657   0.990       .  S
O655        H656   0.991       .  S
C658        C659   1.411       .  A
C658        C663   1.405       .  A
C659        C660   1.397       .  A
C659        H664   1.084       .  S
C660        C661   1.403       .  A
C660        O665   1.371       .  S
C661        C662   1.413       .  A
C662        C663   1.399       .  A
C662        H666   1.083       .  S
C663        O667   1.372       .  S
O665        H669   0.991       .  S
O667        H668   0.990       .  S
C670        C671   1.398       .  A
C670        C675   1.415       .  A
C671        C672   1.398       .  A
C671        H676   1.084       .  S
C672        C673   1.416       .  A
C672        O677   1.372       .  S
C673        C674   1.394       .  A
C674        C675   1.388       .  A
C674        H678   1.084       .  S
C675        O679   1.373       .  S
O677        H681   0.991       .  S
O679        H680   0.992       .  S
C682        C683   1.408       .  A
C682        C687   1.412       .  A
C683        C684   1.402       .  A
C683        H688   1.084       .  S
C684        C685   1.413       .  A
C684        O689   1.372       .  S
C685        C686   1.409       .  A
C686        C687   1.407       .  A
C686        H690   1.083       .  S
C687        O691   1.372       .  S
O689        H693   0.993       .  S
O691        H692   0.988       .  S
O694        C702   1.278       .  A
O694       Co714   2.012   1_565  S
O695        C703   1.251       .  A
O695       Co715   1.958   1_565  S
O696        C704   1.271       .  A
O696       Co716   1.897       .  S
O697        C705   1.258       .  A
O697       Co717   1.953       .  S
O698        C704   1.293       .  A
O698       Co715   2.099   1_565  S
O699        C705   1.280       .  A
O699       Co714   2.053   1_565  S
O700        C703   1.263       .  A
O700       Co717   1.990       .  S
O701        C702   1.272       .  A
O701       Co716   1.982       .  S
C702       C1306   1.479       .  S
C703       C1315   1.469       .  S
C704       C1294   1.465       .  S
C705       C1327   1.481       .  S
O706        C719   1.252       .  A
O706       Co714   1.942       .  S
O707        C720   1.250       .  A
O707       Co715   1.842       .  S
O708        C721   1.265       .  A
O708       Co716   2.027   1_545  S
O709        C722   1.273       .  A
O709       Co717   2.011   1_545  S
O710        C722   1.267       .  A
O710       Co715   1.968       .  S
O711        C721   1.254       .  A
O711       Co714   1.967       .  S
O712        C719   1.274       .  A
O712       Co717   2.037   1_545  S
O713        C720   1.305       .  A
O713       Co716   2.144   1_545  S
Co714       O718   1.996       .  S
Co715       O718   1.953       .  S
Co716       O718   2.037   1_565  S
Co717       O718   2.055   1_565  S
C719       C1351   1.480       .  S
C720       C1363   1.480       .  S
C721       C1375   1.494       .  S
C722       C1339   1.486       .  S
O723        C731   1.264       .  A
O723       Co743   1.866       .  S
O724        C732   1.260       .  A
O724       Co744   1.954       .  S
O725        C733   1.262       .  A
O725       Co745   1.991   1_655  S
O726        C734   1.276       .  A
O726       Co746   2.026   1_655  S
O727        C733   1.262       .  A
O727       Co744   1.973       .  S
O728        C734   1.270       .  A
O728       Co743   1.985       .  S
O729        C732   1.271       .  A
O729       Co746   2.010   1_655  S
O730        C731   1.297       .  A
O730       Co745   2.116   1_655  S
C731       C1207   1.461       .  S
C732       C1219   1.480       .  S
C733       C1195   1.483       .  S
C734       C1231   1.493       .  S
O735        C748   1.261       .  A
O735       Co743   1.978   1_455  S
O736        C749   1.273       .  A
O736       Co744   1.994   1_455  S
O737        C750   1.270       .  A
O737       Co745   1.912       .  S
O738        C751   1.266       .  A
O738       Co746   1.968       .  S
O739        C751   1.271       .  A
O739       Co744   2.011   1_455  S
O740        C750   1.293       .  A
O740       Co743   2.099   1_455  S
O741        C748   1.260       .  A
O741       Co746   1.978       .  S
O742        C749   1.282       .  A
O742       Co745   1.996       .  S
Co743       O747   1.977   1_655  S
Co744       O747   2.014   1_655  S
Co745       O747   2.015       .  S
Co746       O747   2.051       .  S
C748       C1258   1.467       .  S
C749       C1267   1.485       .  S
C750       C1282   1.483       .  S
C751       C1243   1.480       .  S
O752        C760   1.266       .  A
O752       Co772   1.992       .  S
O753        C761   1.260       .  A
O753       Co773   1.983       .  S
O754        C762   1.269       .  A
O754       Co774   2.026       .  S
O755        C763   1.265       .  A
O755       Co775   1.982       .  S
O756        C762   1.251       .  A
O756       Co773   1.954       .  S
O757        C763   1.270       .  A
O757       Co772   1.986       .  S
O758        C761   1.265       .  A
O758       Co775   1.979       .  S
O759        C760   1.259       .  A
O759       Co774   1.987       .  S
C760       C1114   1.478       .  S
C761       C1123   1.464       .  S
C762       C1102   1.487       .  S
C763       C1135   1.483       .  S
O764        C777   1.265       .  A
O764       Co772   1.992       .  S
O765        C778   1.268       .  A
O765       Co773   1.932       .  S
O766        C779   1.259       .  A
O766       Co774   1.937       .  S
O767        C780   1.255       .  A
O767       Co775   1.960       .  S
O768        C780   1.258       .  A
O768       Co773   1.990       .  S
O769        C779   1.280       .  A
O769       Co772   2.037       .  S
O770        C777   1.265       .  A
O770       Co775   1.984       .  S
O771        C778   1.279       .  A
O771       Co774   2.023       .  S
Co772       O776   2.072       .  S
Co773       O776   1.974       .  S
Co774       O776   2.083       .  S
Co775       O776   2.051       .  S
C777       C1159   1.483       .  S
C778       C1174   1.460       .  S
C779       C1183   1.472       .  S
C780       C1147   1.468       .  S
O781        C789   1.254       .  A
O781       Co801   1.981       .  S
O782        C790   1.273       .  A
O782       Co802   1.983       .  S
O783        C791   1.289       .  A
O783       Co803   2.081       .  S
O784        C792   1.282       .  A
O784       Co804   2.062       .  S
O785        C791   1.273       .  A
O786       Co801   1.949       .  S
O787        C790   1.276       .  A
O787       Co804   2.024       .  S
O788        C789   1.254       .  A
O788       Co803   1.982       .  S
C789       C1210   1.469       .  S
C790       C1063   1.508       .  S
C791       C1138   1.473       .  S
C792       C1051   1.498       .  S
O793        C806   1.272       .  A
O794       Co802   2.119       .  S
O795        C808   1.266       .  A
O795       Co803   1.963   1_554  S
O796        C809   1.258       .  A
O796       Co804   1.965       .  S
O797        C809   1.262       .  A
O797       Co802   2.002       .  S
O798        C808   1.283   1_556  A
O798       Co801   2.046       .  S
O799        C806   1.251       .  A
O799       Co804   1.946       .  S
O800        C807   1.255       .  A
O800       Co803   1.873       .  S
Co802       O805   2.031       .  S
Co804       O805   2.027       .  S
C806       C1198   1.475       .  S
C807       C1090   1.466       .  S
C808       C1078   1.493       .  S
C809       C1126   1.478       .  S
O810        C818   1.258       .  A
O810       Co830   1.961       .  S
O811        C819   1.268       .  A
O811       Co831   1.966       .  S
O812        C820   1.297       .  A
O812       Co832   2.121       .  S
O813        C821   1.273       .  A
O813       Co833   2.039       .  S
O814        C820   1.268       .  A
O815       Co830   1.979       .  S
O816        C819   1.289       .  A
O816       Co833   2.068       .  S
O817        C818   1.271       .  A
O817       Co832   2.011       .  S
C818       C1354   1.478       .  S
C819       C1027   1.511       .  S
C820       C1234   1.490       .  S
C821       C1015   1.499       .  S
O822        C835   1.274       .  A
O823       Co831   2.115       .  S
O824        C837   1.269       .  A
O824       Co832   1.985   1_554  S
O825        C838   1.243       .  A
O825       Co833   1.946       .  S
O826        C838   1.261       .  A
O826       Co831   2.024       .  S
O827        C837   1.280   1_556  A
O827       Co830   2.047       .  S
O828        C835   1.253       .  A
O828       Co833   1.950       .  S
O829        C836   1.270       .  A
O829       Co832   1.896       .  S
Co831       O834   2.020       .  S
Co833       O834   2.015       .  S
C835       C1342   1.467       .  S
C836       C1075   1.479   1_556  S
C837       C1039   1.511       .  S
C838       C1222   1.458       .  S
O839        C847   1.254       .  A
O839       Co859   1.966       .  S
O840        C848   1.274       .  A
O840       Co860   1.993       .  S
O841        C849   1.299       .  A
O841       Co861   2.110       .  S
O842        C850   1.282       .  A
O842       Co862   2.057       .  S
O843        C849   1.271       .  A
O844       Co859   1.955       .  S
O845        C848   1.274       .  A
O845       Co862   2.015       .  S
O846        C847   1.258       .  A
O846       Co861   2.005       .  S
C847       C1303   1.474       .  S
C848       C1054   1.502       .  S
C849       C1279   1.477       .  S
C850        C979   1.495       .  S
O851        C864   1.270       .  A
O852       Co860   2.132       .  S
O853        C866   1.268       .  A
O853       Co861   1.970   1_554  S
O854        C867   1.256       .  A
O854       Co862   1.963       .  S
O855        C867   1.270       .  A
O855       Co860   2.014       .  S
O856        C866   1.283   1_556  A
O856       Co859   2.040       .  S
O857        C864   1.252       .  A
O857       Co862   1.952       .  S
O858        C865   1.260       .  A
O858       Co861   1.879       .  S
Co860       O863   2.016       .  S
Co862       O863   2.019       .  S
C864       C1291   1.472       .  S
C865        C994   1.481       .  S
C866       C1003   1.494       .  S
C867       C1270   1.481       .  S
O868        C876   1.274       .  A
O868       Co888   2.023       .  S
O869        C877   1.242       .  A
O869       Co889   1.956       .  S
O870        C878   1.263       .  A
O870       Co890   1.870       .  S
O871        C879   1.245       .  A
O871       Co891   1.928       .  S
O872       Co889   2.096       .  S
O873        C879   1.268       .  A
O874        C877   1.251       .  A
O874       Co891   1.998       .  S
O875        C876   1.270       .  A
O875       Co890   1.983   1_554  S
C876       C1006   1.495       .  S
C877       C1150   1.476       .  S
C878        C967   1.475       .  S
C879       C1318   1.467       .  S
O880       Co888   1.959   1_556  S
O881        C894   1.238       .  A
O882        C895   1.264       .  A
O882       Co890   2.010       .  S
O883        C896   1.285       .  A
O883       Co891   2.061       .  S
O884        C896   1.260       .  A
O884       Co889   1.949       .  S
O885        C895   1.256       .  A
O885       Co888   1.963   1_556  S
O886        C893   1.275       .  A
O886       Co891   2.045       .  S
O887        C894   1.276       .  A
O887       Co890   2.064       .  S
Co889       O892   2.062       .  S
Co891       O892   2.074       .  S
C893       C1018   1.497       .  S
C894       C1162   1.483       .  S
C895       C1330   1.482       .  S
C896       C1066   1.503       .  S
O897        C905   1.275       .  A
O897       Co917   1.884       .  S
O898        C906   1.266       .  A
O898       Co918   1.987       .  S
O899        C907   1.302       .  A
O899       Co919   2.063       .  S
O900        C908   1.267       .  A
O900       Co920   2.023       .  S
O901        C907   1.271       .  A
O902       Co917   1.987       .  S
O903        C906   1.271       .  A
O903       Co920   2.019       .  S
O904        C905   1.299       .  A
O904       Co919   2.045       .  S
C905       C1255   1.471       .  S
C906        C958   1.507       .  S
C907       C1186   1.485       .  S
C908       C1030   1.510       .  S
O909        C922   1.268       .  A
O910       Co918   1.987       .  S
O911        C924   1.247       .  A
O911       Co919   1.973       .  S
O912        C925   1.258       .  A
O912       Co920   1.960       .  S
O913        C925   1.262       .  A
O913       Co918   1.990       .  S
O914        C924   1.245       .  A
O914       Co917   1.984       .  S
O915        C922   1.261       .  A
O915       Co920   1.970       .  S
O916        C923   1.248       .  A
O916       Co919   1.973       .  S
Co918       O921   1.936       .  S
Co920       O921   2.083       .  S
C922       C1246   1.478       .  S
C923        C970   1.481       .  S
C924        C991   1.473       .  S
C925       C1171   1.468       .  S
O926        C934   1.282   1_556  A
O926       Co946   2.051       .  S
O927        C935   1.268       .  A
O927       Co947   2.036       .  S
O928        C936   1.263       .  A
O928       Co948   1.882       .  S
O929        C937   1.251       .  A
O929       Co949   1.934       .  S
O930       Co947   2.094       .  S
O931        C937   1.272       .  A
O932        C935   1.245       .  A
O932       Co949   1.949       .  S
O933        C934   1.269       .  A
O933       Co948   1.984   1_554  S
C934       C1042   1.510       .  S
C935       C1099   1.479       .  S
C936       C1087   1.468       .  S
C937       C1366   1.463       .  S
O938       Co946   1.968       .  S
O939        C952   1.269       .  A
O940        C953   1.263       .  A
O940       Co948   2.004       .  S
O941        C954   1.281       .  A
O941       Co949   2.046       .  S
O942        C954   1.262       .  A
O942       Co947   1.972       .  S
O943        C953   1.259       .  A
O943       Co946   1.985       .  S
O944        C951   1.273       .  A
O944       Co949   2.026       .  S
O945        C952   1.295       .  A
O945       Co948   2.098       .  S
Co947       O950   2.034       .  S
Co949       O950   2.040       .  S
C951        C982   1.495       .  S
C952       C1111   1.485       .  S
C953       C1378   1.494       .  S
C954        C955   1.504       .  S
C955        C956   1.403       .  A
C955        C960   1.418       .  A
C956        C957   1.405       .  A
C957        C958   1.419       .  A
C958        C959   1.409       .  A
C959        C960   1.412       .  A
C959        H963   1.083       .  S
C960        O964   1.371       .  S
O962        H966   0.992       .  S
O964        H965   0.992       .  S
C967        C968   1.402       .  A
C968        C969   1.392       .  A
C968        H973   1.084       .  S
C969        C970   1.413       .  A
C969        O974   1.373       .  S
C971        C972   1.406       .  A
C971        H975   1.083       .  S
C972        O976   1.371       .  S
O974        H978   0.992       .  S
O976        H977   0.989       .  S
C979        C980   1.405       .  A
C979        C984   1.416       .  A
C980        C981   1.406   1_565  A
C980        H985   1.083       .  S
C981        C982   1.416       .  A
C981        O986   1.371       .  S
C982        C983   1.405       .  A
C983        C984   1.402   1_545  A
C983        H987   1.084       .  S
C984        O988   1.372       .  S
O986        H990   0.992       .  S
O988        H989   0.992       .  S
C991        C992   1.401       .  A
C992        C993   1.394       .  A
C992        H997   1.083       .  S
C993        C994   1.412       .  A
C993        O998   1.373       .  S
C995        C996   1.409       .  A
C995        H999   1.083       .  S
C996       O1000   1.371       .  S
O998       H1002   0.992       .  S
O1000      H1001   0.992       .  S
C1003      C1004   1.405       .  A
C1003      C1008   1.415       .  A
C1004      C1005   1.402       .  A
C1004      H1009   1.083   1_554  S
C1005      C1006   1.416       .  A
C1005      O1010   1.372   1_554  S
C1006      C1007   1.406       .  A
C1007      C1008   1.405       .  A
O1010      H1014   0.992       .  S
O1012      H1013   0.993       .  S
C1015      C1016   1.408       .  A
C1015      C1020   1.413       .  A
C1016      C1017   1.409   1_545  A
C1016      H1021   1.083       .  S
C1017      C1018   1.415       .  A
C1018      C1019   1.407       .  A
C1019      C1020   1.404   1_565  A
C1019      H1023   1.084       .  S
C1020      O1024   1.371       .  S
O1022      H1026   0.991       .  S
O1024      H1025   0.991       .  S
C1027      C1028   1.407       .  A
C1028      C1029   1.410   1_655  A
C1028      H1033   1.083       .  S
C1029      C1030   1.419       .  A
C1029      O1034   1.371       .  S
C1031      C1032   1.408   1_455  A
C1031      H1035   1.083       .  S
C1032      O1036   1.371       .  S
O1034      H1038   0.992       .  S
O1036      H1037   0.990       .  S
C1039      C1040   1.410       .  A
C1039      C1044   1.416       .  A
C1040      C1041   1.411       .  A
C1040      H1045   1.083       .  S
C1041      C1042   1.417       .  A
C1041      O1046   1.371       .  S
C1042      C1043   1.409       .  A
C1043      C1044   1.410       .  A
C1043      H1047   1.083   1_554  S
C1044      O1048   1.371   1_554  S
O1046      H1050   0.991       .  S
O1048      H1049   0.990   1_556  S
C1051      C1052   1.402       .  A
C1052      C1053   1.406   1_655  A
C1052      H1057   1.083       .  S
C1053      C1054   1.421       .  A
C1053      O1058   1.372       .  S
C1055      C1056   1.405       .  A
C1055      H1059   1.084       .  S
C1056      O1060   1.372   1_455  S
O1058      H1062   0.992       .  S
O1060      H1061   0.991       .  S
C1063      C1064   1.408       .  A
C1063      C1068   1.419       .  A
C1064      C1065   1.410       .  A
C1064      H1069   1.083       .  S
C1065      C1066   1.419       .  A
C1065      O1070   1.373       .  S
C1066      C1067   1.403       .  A
C1067      C1068   1.409       .  A
O1070      H1074   0.993       .  S
O1072      H1073   0.992       .  S
C1075      C1076   1.400       .  A
C1076      C1077   1.404       .  A
C1076      H1081   1.084       .  S
C1077      C1078   1.418       .  A
C1077      O1082   1.372       .  S
C1079      C1080   1.406       .  A
C1079      H1083   1.083       .  S
C1080      O1084   1.371       .  S
O1082      H1086   0.993       .  S
O1084      H1085   0.992       .  S
C1087      C1088   1.398       .  A
C1088      C1089   1.386       .  A
C1088      H1093   1.085       .  S
C1089      C1090   1.406       .  A
C1089      O1094   1.371       .  S
C1091      C1092   1.409       .  A
C1091      H1095   1.084       .  S
C1092      O1096   1.374       .  S
O1094      H1098   0.991       .  S
O1096      H1097   0.991       .  S
C1099      C1100   1.402       .  A
C1099      C1104   1.410       .  A
C1100      C1101   1.410       .  A
C1100      H1105   1.083       .  S
C1101      C1102   1.422       .  A
C1101      O1106   1.372       .  S
C1102      C1103   1.400       .  A
C1103      C1104   1.396       .  A
C1103      H1107   1.084       .  S
C1104      O1108   1.371       .  S
O1106      H1110   0.991       .  S
O1108      H1109   0.991       .  S
C1111      C1112   1.408       .  A
C1111      C1116   1.410       .  A
C1112      C1113   1.403       .  A
C1112      H1117   1.084       .  S
C1113      C1114   1.405       .  A
C1113      O1118   1.371       .  S
C1114      C1115   1.406       .  A
C1115      C1116   1.402       .  A
C1115      H1119   1.084       .  S
C1116      O1120   1.373       .  S
O1118      H1122   0.992       .  S
O1120      H1121   0.991       .  S
C1123      C1124   1.405       .  A
C1123      C1128   1.401       .  A
C1124      C1125   1.401       .  A
C1124      H1129   1.084       .  S
C1125      C1126   1.411       .  A
C1125      O1130   1.372       .  S
C1126      C1127   1.407       .  A
C1127      C1128   1.390       .  A
C1127      H1131   1.083       .  S
C1128      O1132   1.373       .  S
O1130      H1134   0.991       .  S
O1132      H1133   0.990       .  S
C1135      C1136   1.402       .  A
C1135      C1140   1.421       .  A
C1136      C1137   1.405       .  A
C1136      H1141   1.083       .  S
C1137      C1138   1.415       .  A
C1137      O1142   1.371       .  S
C1138      C1139   1.393       .  A
C1139      C1140   1.392       .  A
C1139      H1143   1.084       .  S
C1140      O1144   1.372       .  S
O1142      H1146   0.994       .  S
O1144      H1145   0.990       .  S
C1147      C1148   1.402       .  A
C1147      C1152   1.411       .  A
C1148      C1149   1.398       .  A
C1148      H1153   1.084       .  S
C1149      C1150   1.410       .  A
C1149      O1154   1.371       .  S
C1150      C1151   1.401       .  A
C1151      C1152   1.398       .  A
C1151      H1155   1.084       .  S
C1152      O1156   1.368       .  S
O1154      H1158   0.991       .  S
O1156      H1157   0.991       .  S
C1159      C1160   1.409       .  A
C1159      C1164   1.412       .  A
C1160      C1161   1.405       .  A
C1160      H1165   1.083       .  S
C1161      C1162   1.403       .  A
C1161      O1166   1.370       .  S
C1162      C1163   1.411       .  A
C1163      C1164   1.393       .  A
C1163      H1167   1.084       .  S
C1164      O1168   1.376       .  S
O1166      H1170   0.991       .  S
O1168      H1169   0.991       .  S
C1171      C1172   1.406       .  A
C1171      C1176   1.409       .  A
C1172      C1173   1.391       .  A
C1172      H1177   1.084       .  S
C1173      C1174   1.407       .  A
C1173      O1178   1.373       .  S
C1174      C1175   1.400       .  A
C1175      C1176   1.392       .  A
C1175      H1179   1.084       .  S
C1176      O1180   1.371       .  S
O1178      H1182   0.989       .  S
O1180      H1181   0.991       .  S
C1183      C1184   1.395       .  A
C1183      C1188   1.413       .  A
C1184      C1185   1.395       .  A
C1184      H1189   1.082       .  S
C1185      C1186   1.416       .  A
C1185      O1190   1.372       .  S
C1186      C1187   1.403       .  A
C1187      C1188   1.407       .  A
C1187      H1191   1.083       .  S
C1188      O1192   1.372       .  S
O1190      H1194   0.992       .  S
O1192      H1193   0.991       .  S
C1195      C1196   1.411       .  A
C1195      C1200   1.407       .  A
C1196      C1197   1.399       .  A
C1196      H1201   1.083       .  S
C1197      C1198   1.403       .  A
C1197      O1202   1.371       .  S
C1198      C1199   1.408       .  A
C1199      C1200   1.401       .  A
C1199      H1203   1.084       .  S
C1200      O1204   1.371       .  S
O1202      H1206   0.990       .  S
O1204      H1205   0.991       .  S
C1207      C1208   1.401       .  A
C1207      C1212   1.405       .  A
C1208      C1209   1.400       .  A
C1208      H1213   1.084       .  S
C1209      C1210   1.410       .  A
C1209      O1214   1.371       .  S
C1210      C1211   1.403       .  A
C1211      C1212   1.390       .  A
C1211      H1215   1.084       .  S
C1212      O1216   1.372       .  S
O1214      H1218   0.991       .  S
O1216      H1217   0.990       .  S
C1219      C1220   1.411       .  A
C1219      C1224   1.412       .  A
C1220      C1221   1.398       .  A
C1220      H1225   1.083       .  S
C1221      C1222   1.401       .  A
C1221      O1226   1.372       .  S
C1222      C1223   1.401       .  A
C1223      C1224   1.395       .  A
C1223      H1227   1.084       .  S
C1224      O1228   1.372       .  S
O1226      H1230   0.991       .  S
O1228      H1229   0.993       .  S
C1231      C1232   1.406       .  A
C1231      C1236   1.416       .  A
C1232      C1233   1.410       .  A
C1232      H1237   1.083       .  S
C1233      C1234   1.414       .  A
C1233      O1238   1.371       .  S
C1234      C1235   1.401       .  A
C1235      C1236   1.400       .  A
C1235      H1239   1.083       .  S
C1236      O1240   1.372       .  S
O1238      H1242   0.992       .  S
O1240      H1241   0.991       .  S
C1243      C1244   1.404       .  A
C1243      C1248   1.414       .  A
C1244      C1245   1.396       .  A
C1244      H1249   1.083       .  S
C1245      C1246   1.413       .  A
C1245      O1250   1.372       .  S
C1246      C1247   1.402       .  A
C1247      C1248   1.396       .  A
C1247      H1251   1.084       .  S
C1248      O1252   1.373       .  S
O1250      H1254   0.992       .  S
O1252      H1253   0.990       .  S
C1255      C1256   1.405       .  A
C1255      C1260   1.406       .  A
C1256      C1257   1.389       .  A
C1256      H1261   1.084       .  S
C1257      C1258   1.406       .  A
C1257      O1262   1.373       .  S
C1258      C1259   1.406       .  A
C1259      C1260   1.402       .  A
C1259      H1263   1.083       .  S
C1260      O1264   1.371       .  S
O1262      H1266   0.989       .  S
O1264      H1265   0.992       .  S
C1267      C1268   1.400       .  A
C1267      C1272   1.420       .  A
C1268      C1269   1.400       .  A
C1268      H1273   1.083       .  S
C1269      C1270   1.417       .  A
C1269      O1274   1.372       .  S
C1270      C1271   1.398       .  A
C1271      C1272   1.396       .  A
C1271      H1275   1.084       .  S
C1272      O1276   1.372       .  S
O1274      H1278   0.992       .  S
O1276      H1277   0.989       .  S
C1279      C1280   1.403       .  A
C1279      C1284   1.407       .  A
C1280      C1281   1.408       .  A
C1280      H1285   1.084       .  S
C1281      C1282   1.412       .  A
C1281      O1286   1.371       .  S
C1282      C1283   1.405       .  A
C1283      C1284   1.400       .  A
C1283      H1287   1.084       .  S
C1284      O1288   1.372       .  S
O1286      H1290   0.991       .  S
O1288      H1289   0.991       .  S
C1291      C1292   1.406       .  A
C1291      C1296   1.407       .  A
C1292      C1293   1.399       .  A
C1292      H1297   1.084       .  S
C1293      C1294   1.404       .  A
C1293      O1298   1.372       .  S
C1294      C1295   1.403       .  A
C1295      C1296   1.399       .  A
C1295      H1299   1.084       .  S
C1296      O1300   1.371       .  S
O1298      H1302   0.991       .  S
O1300      H1301   0.992       .  S
C1303      C1304   1.405       .  A
C1303      C1308   1.408       .  A
C1304      C1305   1.407       .  A
C1304      H1309   1.083       .  S
C1305      C1306   1.410       .  A
C1305      O1310   1.371       .  S
C1306      C1307   1.403       .  A
C1307      C1308   1.392       .  A
C1307      H1311   1.084       .  S
C1308      O1312   1.373       .  S
O1310      H1314   0.992       .  S
O1312      H1313   0.992       .  S
C1315      C1316   1.398       .  A
C1315      C1320   1.417       .  A
C1316      C1317   1.394       .  A
C1316      H1321   1.084       .  S
C1317      C1318   1.415       .  A
C1317      O1322   1.372       .  S
C1318      C1319   1.396       .  A
C1319      C1320   1.393       .  A
C1319      H1323   1.084       .  S
C1320      O1324   1.372       .  S
O1322      H1326   0.991       .  S
O1324      H1325   0.992       .  S
C1327      C1328   1.407       .  A
C1327      C1332   1.408       .  A
C1328      C1329   1.402       .  A
C1328      H1333   1.083       .  S
C1329      C1330   1.408       .  A
C1329      O1334   1.372       .  S
C1330      C1331   1.408       .  A
C1331      C1332   1.402       .  A
C1331      H1335   1.084       .  S
C1332      O1336   1.372       .  S
O1334      H1338   0.991       .  S
O1336      H1337   0.991   1_565  S
C1339      C1340   1.406       .  A
C1339      C1344   1.420       .  A
C1340      C1341   1.402       .  A
C1340      H1345   1.083       .  S
C1341      C1342   1.408       .  A
C1341      O1346   1.372       .  S
C1342      C1343   1.396       .  A
C1343      C1344   1.397       .  A
C1343      H1347   1.084       .  S
C1344      O1348   1.372       .  S
O1346      H1350   0.992       .  S
O1348      H1349   0.992       .  S
C1351      C1352   1.411       .  A
C1351      C1356   1.405       .  A
C1352      C1353   1.396       .  A
C1352      H1357   1.084       .  S
C1353      C1354   1.405       .  A
C1353      O1358   1.372       .  S
C1354      C1355   1.410       .  A
C1355      C1356   1.397       .  A
C1355      H1359   1.083       .  S
C1356      O1360   1.371       .  S
O1358      H1362   0.992       .  S
O1360      H1361   0.991       .  S
C1363      C1364   1.401       .  A
C1363      C1368   1.423       .  A
C1364      C1365   1.401       .  A
C1364      H1369   1.083       .  S
C1365      C1366   1.412       .  A
C1365      O1370   1.372       .  S
C1366      C1367   1.391       .  A
C1367      C1368   1.390       .  A
C1367      H1371   1.084       .  S
C1368      O1372   1.373       .  S
O1370      H1374   0.992       .  S
O1372      H1373   0.992       .  S
C1375      C1376   1.408       .  A
C1375      C1380   1.412       .  A
C1376      C1377   1.399       .  A
C1376      H1381   1.084       .  S
C1377      C1378   1.412       .  A
C1377      O1382   1.372       .  S
C1378      C1379   1.410       .  A
C1379      C1380   1.409       .  A
C1379      H1383   1.083       .  S
C1380      O1384   1.372       .  S
O1382      H1386   0.993       .  S
O1384      H1385   0.991       .  S
