geometry optimzed in LAMMPS
_audit_creation_date              2020-11-30 
_audit_creation_method            'lammps2cif' 
_symmetry_space_group_name_H-M    'P1' 
_symmetry_Int_Tables_number       1 
_symmetry_cell_setting            triclinic 
loop_ 
_symmetry_equiv_pos_as_xyz 
  x,y,z 
_cell_length_a                    36.782185337383886 
_cell_length_b                    36.86954173829247 
_cell_length_c                    28.74746892521687 
_cell_angle_alpha                 90.05945222681304 
_cell_angle_beta                  89.5446469193342 
_cell_angle_gamma                 120.07318955022095 
loop_ 
_atom_site_label 
_atom_site_type_symbol 
_atom_site_fract_x 
_atom_site_fract_y 
_atom_site_fract_z 
_atom_site_charge 
O1          O  0.44153991  0.93762653  0.31057033    -0.78920
O2          O  0.50476767  0.93815337  0.19946923    -0.78940
O3          O  0.43156739  0.95552929  0.20811939    -0.78950
O4          O  0.57926018  0.97770244  0.30386944    -0.78890
O5          O  0.46504587  0.96581659  0.14083003    -0.79020
O6          O  0.51191104  0.93609522  0.31760677    -0.78930
O7          O  0.57333713  0.97643230  0.20949620    -0.78920
O8          O  0.42104952  0.98149053  0.29391720    -0.78960
C9          C  0.41270267  0.94633725  0.31013478     1.10710
C10         C  0.54131009  0.94252964  0.19663877     1.10660
C11         C  0.43122187  0.94716007  0.16443907     1.10790
C12         C  0.54859688  0.94215089  0.31590805     1.10670
O13         O  0.55576095  0.01932369  0.35997761    -0.78920
O14         O  0.49274926  0.04249051  0.18219263    -0.79000
O15         O  0.49571826  0.06108870  0.28349582    -0.78930
O16         O  0.58741649  0.06161088  0.21093860    -0.78910
O17         O  0.55112216  0.01860637  0.15586810    -0.78960
O18         O  0.48302686  0.02400829  0.34814089    -0.78930
O19         O  0.59004638  0.06208280  0.30242583    -0.78890
O20         O  0.43408515  0.02935432  0.21834081    -0.78960
Co21       Co  0.49873393  0.98014666  0.32980716     1.51530
Co22       Co  0.49790537  0.98847839  0.19538688     1.51690
Co23       Co  0.46790239  0.01003280  0.24588539     1.51570
Co24       Co  0.57850465  0.01896218  0.25698714     1.51470
O25         O  0.51567527  0.00003355  0.26270732    -1.40850
C26         C  0.58724728  0.05305236  0.34468695     1.10700
C27         C  0.46194445  0.04994576  0.18799275     1.10790
C28         C  0.48856802  0.05678610  0.32676575     1.10720
C29         C  0.58396428  0.05156107  0.16891121     1.10700
O30         O  0.98395238  0.52537551  0.35595571    -0.78920
O31         O  0.95385376  0.43309053  0.19634346    -0.78940
O32         O  0.97477210  0.57412192  0.23146409    -0.78950
O33         O  0.95018235  0.43026006  0.28869422    -0.78890
O34         O  0.95209359  0.51088686  0.20001756    -0.79020
O35         O  0.98374617  0.44873853  0.35405918    -0.78930
O36         O  0.97663896  0.39262887  0.22740961    -0.78920
O37         O  0.94968529  0.50938170  0.29134213    -0.78960
C38         C  0.95186974  0.51905436  0.33342640     1.10770
C39         C  0.95112251  0.39680914  0.20145235     1.10660
C40         C  0.94920602  0.54427193  0.20567287     1.10790
C41         C  0.95192279  0.42300200  0.33096132     1.10670
O42         O  0.07180275  0.49514114  0.32870767    -0.78920
O43         O  0.03883915  0.55335902  0.16473441    -0.79000
O44         O  0.02905875  0.58994176  0.30793482    -0.78930
O45         O  0.05549998  0.45861379  0.22435694    -0.78910
O46         O  0.04150009  0.48293553  0.16344413    -0.78960
O47         O  0.07152407  0.56786175  0.33010881    -0.78930
O48         O  0.03027809  0.43089232  0.30480800    -0.78890
O49         O  0.05427580  0.58939742  0.22745922    -0.78960
Co50       Co  0.02726393  0.50898568  0.33688712     1.51530
Co51       Co  0.99930353  0.49629159  0.19108358     1.51690
Co52       Co  0.00210188  0.54665439  0.25667690     1.51570
Co53       Co  0.00295599  0.44727276  0.25414981     1.51470
O54         O  0.02288131  0.50725645  0.26404361    -1.40850
C55         C  0.06457563  0.45826774  0.32317996     1.10700
C56         C  0.05988011  0.58778267  0.18509657     1.10790
C57         C  0.06357709  0.59719355  0.32593217     1.10720
C58         C  0.06246328  0.46893992  0.18273464     1.10700
O59         O  0.49847918  0.43030999  0.31266074    -0.78920
O60         O  0.56056376  0.52517285  0.15690916    -0.78940
O61         O  0.50057571  0.43012701  0.22095069    -0.78950
O62         O  0.61744976  0.57369127  0.28243012    -0.78890
O63         O  0.48435787  0.44850159  0.15639841    -0.79020
O64         O  0.57818212  0.50997815  0.31369703    -0.78930
O65         O  0.57899094  0.50961487  0.22206698    -0.78920
O66         O  0.43525744  0.39040715  0.28087499    -0.78960
C67         C  0.46478267  0.39414038  0.30671734     1.10770
C68         C  0.58604092  0.51865624  0.17973948     1.10660
C69         C  0.49141439  0.42308432  0.17877975     1.10790
C70         C  0.61418874  0.54413585  0.30813745     1.10670
O71         O  0.53013842  0.54874651  0.34818078    -0.78920
O72         O  0.44188406  0.49353154  0.18309123    -0.79000
O73         O  0.42160355  0.45534514  0.28548968    -0.78930
O74         O  0.57921932  0.58930522  0.20562145    -0.78910
O75         O  0.51463461  0.56656476  0.18291989    -0.78960
O76         O  0.45837239  0.47670728  0.34766510    -0.78930
O77         O  0.55173940  0.58681740  0.28653472    -0.78890
O78         O  0.41971481  0.42888620  0.20489280    -0.78960
Co79       Co  0.51496459  0.49287519  0.32051972     1.51530
Co80       Co  0.50060221  0.50819431  0.17504070     1.51690
Co81       Co  0.46347865  0.44534180  0.25568068     1.51570
Co82       Co  0.56274485  0.54558489  0.25664339     1.51470
O83         O  0.50293601  0.50546499  0.24777729    -1.40850
C84         C  0.54314639  0.58361695  0.32871592     1.10700
C85         C  0.41230315  0.45640186  0.18806606     1.10790
C86         C  0.42382410  0.46333741  0.32762817     1.10720
C87         C  0.55175838  0.59620667  0.18757184     1.10700
C88         C  0.89525034  0.57576491  0.38179307     0.43680
N89         N  0.83575367  0.56255568  0.41034634     0.02570
C90         C  0.78425666  0.68807497  0.04614046    -0.05310
H91         H  0.92636958  0.69304667  0.09016422     0.08060
C92         C  0.84237370  0.54147874  0.12875141    -0.05660
Co93       Co  0.83195423  0.63592392  0.44975168     0.74180
N94         N  0.88026152  0.66636743  0.03549759    -0.24840
Co95       Co  0.82148065  0.63201220  0.06912879     0.74070
C96         C  0.87756486  0.57845590  0.14925280     0.43780
N97         N  0.79779928  0.49696545  0.02484600     0.02180
N98         N  0.84306390  0.59769800  0.10600688     0.02290
N99         N  0.79003669  0.68922923  0.46984385    -0.45690
H100        H  0.92444651  0.64646479  0.39793867     0.08040
N101        N  0.88283396  0.66486990  0.49387565     0.02570
N102        N  0.76070165  0.59467594  0.09993645     0.02310
C103        C  0.69956827  0.56895744  0.13282031     0.43920
N104        N  0.79848504  0.49545401  0.47833176    -0.24300
C105        C  0.75940302  0.62119976  0.38140743    -0.05220
N106        N  0.85587653  0.54518996  0.39073870    -0.45400
N107        N  0.73472198  0.60545801  0.12021677    -0.45630
C108        C  0.72301738  0.58432555  0.36202835     0.43690
N109        N  0.80410436  0.66520960  0.48705641     0.02560
N110        N  0.71960799  0.49611499  0.47239859    -0.24320
N111        N  0.85892366  0.60352830  0.41512619    -0.24810
N112        N  0.71752041  0.49545475  0.02172024     0.02200
H113        H  0.67468634  0.47583353  0.41658968     0.08090
H114        H  0.68561389  0.50162423  0.12172741     0.08120
N115        N  0.80097339  0.66542069  0.03070357    -0.24860
N116        N  0.82330232  0.55659084  0.10242022    -0.24470
N117        N  0.75783284  0.56458164  0.40408697     0.02560
C118        C  0.94473948  0.70219542  0.51964213     0.43960
C119        C  0.81979555  0.47702711  0.46346667    -0.05720
N120        N  0.74378474  0.55367303  0.09809838    -0.24470
H121        H  0.83243750  0.50865562  0.13278944     0.08110
N122        N  0.92235503  0.68858442  0.48041824    -0.45690
H123        H  0.82709807  0.47373179  0.42779072     0.08100
C124        C  0.65376664  0.46623780  0.00081742     0.43800
C125        C  0.89763459  0.61505777  0.39778974    -0.05220
Co126      Co  0.77725630  0.52884649  0.44049984     0.73820
N127        N  0.81587007  0.47688893  0.04243898    -0.45410
C128        C  0.77796803  0.70593596  0.00437892     0.44060
N129        N  0.72414226  0.55042614  0.37762856    -0.45400
Co130      Co  0.77053310  0.52486497  0.06228327     0.73890
C131        C  0.70630657  0.53507755  0.11895588    -0.05730
C132        C  0.91890832  0.68876604  0.05354528    -0.05290
N133        N  0.77897192  0.60577266  0.40716028    -0.24820
N134        N  0.87619673  0.61231410  0.13360469    -0.45580
H135        H  0.77803096  0.69193510  0.08209642     0.08070
C136        C  0.68151537  0.47783659  0.45331060    -0.05700
Cl137      Cl  0.79997663  0.58181611  0.00511574    -0.48710
C138        C  0.83084050  0.46559917  0.00585331     0.43830
H139        H  0.76870144  0.65392973  0.37791846     0.08040
N140        N  0.67867209  0.47576865  0.03791031    -0.45420
C141        C  0.70163867  0.12753030  0.37934636     0.43680
N142        N  0.74756893  0.18639782  0.40829177     0.02570
C143        C  0.91406446  0.22066610  0.04185715    -0.05310
H144        H  0.77118045  0.07682637  0.07243459     0.08060
C145        C  0.70181218  0.16084454  0.11126655    -0.05660
Co146      Co  0.82406910  0.18494818  0.44114256     0.74180
N147        N  0.79428474  0.12697593  0.02191316    -0.24840
Co148      Co  0.81769262  0.18115932  0.06112041     0.74070
C149        C  0.69661810  0.12060638  0.12427998     0.43780
N150        N  0.71540433  0.21892551  0.01890833     0.02180
N151        N  0.75813367  0.15862510  0.09371153     0.02290
N152        N  0.91695699  0.21850677  0.46120491    -0.45690
H153        H  0.74612605  0.10088848  0.38410357     0.08040
N154        N  0.79694670  0.12858960  0.47922705     0.02570
N155        N  0.84155516  0.23711764  0.09928617     0.02310
C156        C  0.87799870  0.29084022  0.14268441     0.43920
N157        N  0.72185657  0.22444897  0.48048847    -0.24300
C158        C  0.88899740  0.26875980  0.38511241    -0.05220
N159        N  0.70872441  0.16568847  0.39200099    -0.45400
N160        N  0.87562055  0.25538024  0.12574478    -0.45630
C161        C  0.88892367  0.30749497  0.37200917     0.43690
N162        N  0.87888040  0.20471523  0.47876310     0.02560
N163        N  0.80437362  0.30019604  0.47806620    -0.24320
N164        N  0.76658554  0.16412897  0.40710155    -0.24810
N165        N  0.79744851  0.29546898  0.02223434     0.02200
H166        H  0.82888684  0.34969952  0.42660397     0.08090
H167        H  0.83289699  0.31607304  0.12938617     0.08120
N168        N  0.87494548  0.20417620  0.02531598    -0.24860
N169        N  0.74023130  0.18191232  0.09209669    -0.24470
N170        N  0.83014394  0.26407549  0.40451265     0.02560
C171        C  0.76739441  0.06320179  0.99414721     0.43960
C172        C  0.68203209  0.20598154  0.46645875    -0.05720
N173        N  0.82193463  0.25870878  0.09773687    -0.24470
H174        H  0.67969033  0.17185994  0.11476369     0.08110
N175        N  0.77966966  0.09009560  0.46214202    -0.45690
H176        H  0.67115446  0.20035366  0.43095827     0.08100
C177        C  0.83304104  0.36024688  0.00478070     0.43800
C178        C  0.74031491  0.12671996  0.38789944    -0.05220
Co179      Co  0.77541611  0.24412073  0.44177077     0.73820
N180        N  0.67668381  0.20039066  0.03554108    -0.45410
C181        C  0.94069243  0.23213031  0.00052476     0.44060
N182        N  0.85131638  0.30161357  0.38516539    -0.45400
Co183      Co  0.76848956  0.23937237  0.05848604     0.73890
C184        C  0.84220807  0.29281579  0.12423402    -0.05730
C185        C  0.77651723  0.08726356  0.03660313    -0.05290
N186        N  0.85106228  0.24367931  0.40543809    -0.24820
N187        N  0.73302582  0.12141566  0.11331478    -0.45580
H188        H  0.92272435  0.22474694  0.07814328     0.08070
C189        C  0.82539667  0.33971549  0.46249715    -0.05700
Cl190      Cl  0.79568820  0.21153594  0.99908055    -0.48710
C191        C  0.65164441  0.18708069  0.99841803     0.43830
H192        H  0.91431077  0.26196651  0.38225481     0.08040
N193        N  0.81679519  0.33332341  0.04068896    -0.45420
C194        C  0.30309648  0.88750363  0.36905009     0.43680
N195        N  0.26498259  0.82936910  0.40545129     0.02570
C196        C  0.10139806  0.78227767  0.05441679    -0.05310
H197        H  0.24647690  0.92359955  0.08786760     0.08060
C198        C  0.31011647  0.83278318  0.12126325    -0.05660
Co199      Co  0.18897130  0.82236583  0.45286365     0.74180
N200        N  0.22324169  0.87475454  0.03587191    -0.24840
Co201      Co  0.19666605  0.81784303  0.07296163     0.74070
C202        C  0.31532948  0.87239348  0.13721571     0.43780
N203        N  0.29614742  0.77673755  0.02572245     0.02180
N204        N  0.25488998  0.83701492  0.10518615     0.02290
N205        N  0.09593271  0.77999542  0.48060708    -0.45690
H206        H  0.25855152  0.91200925  0.39027972     0.08040
N207        N  0.21366563  0.87338873  0.49750924     0.02570
N208        N  0.17042175  0.75908455  0.10814098     0.02310
C209        C  0.13263838  0.70126649  0.14558952     0.43920
N210        N  0.30094921  0.79214700  0.46769117    -0.24300
C211        C  0.12677627  0.74714977  0.38922528    -0.05220
N212        N  0.29951754  0.85032774  0.38004844    -0.45400
N213        N  0.13474793  0.73779851  0.13247587    -0.45630
C214        C  0.12733533  0.71123672  0.36824840     0.43690
N215        N  0.13494194  0.79430972  0.49473234     0.02560
N216        N  0.22195498  0.71210264  0.46428443    -0.24320
N217        N  0.24487334  0.85014575  0.41238572    -0.24810
N218        N  0.21298687  0.70185807  0.02896566     0.02200
H219        H  0.19949693  0.66751677  0.40782178     0.08090
H220        H  0.17928527  0.67875192  0.13124004     0.08120
N221        N  0.14059578  0.79857228  0.03747650    -0.24860
N222        N  0.27227306  0.81334422  0.10148469    -0.24470
N223        N  0.18581140  0.74984443  0.40308704     0.02560
C224        C  0.25327164  0.94035823  0.00999137     0.43960
C225        C  0.34050345  0.81183629  0.45111931    -0.05720
N226        N  0.19059539  0.73808616  0.10506902    -0.24470
H227        H  0.33179390  0.82112995  0.12323630     0.08110
N228        N  0.22934686  0.91294408  0.48484068    -0.45690
H229        H  0.34983352  0.81935018  0.41504961     0.08100
C230        C  0.17607718  0.63723550  0.01111037     0.43800
C231        C  0.26675734  0.88765326  0.39063800    -0.05220
Co232      Co  0.24378884  0.77056464  0.43416698     0.73820
N233        N  0.33464798  0.79293895  0.04172115    -0.45410
C234        C  0.07527464  0.77327153  0.01353207     0.44060
N235        N  0.16490106  0.71520374  0.37847552    -0.45400
Co236      Co  0.24346346  0.75727342  0.06592299     0.73890
C237        C  0.16988112  0.70211127  0.12823786    -0.05730
C238        C  0.24191032  0.91433240  0.05171864    -0.05290
N239        N  0.16428249  0.76915184  0.41027641    -0.24820
N240        N  0.27987566  0.87307880  0.12644032    -0.45580
H241        H  0.09232480  0.77654004  0.09071606     0.08070
C242        C  0.20452267  0.67413367  0.44460530    -0.05700
Cl243      Cl  0.21802737  0.78842734  0.00897391    -0.48710
C244        C  0.35964555  0.80441030  0.00415353     0.43830
H245        H  0.10162300  0.75427181  0.39033245     0.08040
N246        N  0.19357491  0.66373469  0.04687731    -0.45420
C247        C  0.47113441  0.81564624  0.01336242     0.43680
N248        N  0.50402724  0.78321892  0.48674001     0.02570
C249        C  0.63679777  0.74747573  0.12636544    -0.05310
H250        H  0.66148889  0.90955467  0.12411829     0.08060
C251        C  0.69503259  0.90943860  0.45810870    -0.05660
Co252      Co  0.54173231  0.76584026  0.07538694     0.74180
N253        N  0.61673234  0.84689419  0.10084627    -0.24840
Co254      Co  0.64937967  0.82253063  0.06262027     0.74070
C255        C  0.70947558  0.93683583  0.49823376     0.43780
N256        N  0.60665567  0.83460357  0.40655617     0.02180
N257        N  0.67614542  0.87452672  0.01878524     0.02290
N258        N  0.56608266  0.71226037  0.13317240    -0.45690
H259        H  0.48258306  0.81209099  0.09121988     0.08040
N260        N  0.57555251  0.82415212  0.10577552     0.02570
N261        N  0.67950462  0.79744269  0.02297586     0.02310
C262        C  0.71692749  0.77133887  0.00102924     0.43920
N263        N  0.56535105  0.81350546  0.40951884    -0.24300
C264        C  0.48963453  0.66905545  0.06096955    -0.05220
N265        N  0.48326093  0.80022885  0.46853658    -0.45400
N266        N  0.70458705  0.78421360  0.03876522    -0.45630
C267        C  0.47442648  0.64191640  0.02047035     0.43690
N268        N  0.57950138  0.74709698  0.10884988     0.02560
N269        N  0.56533654  0.73458353  0.41277894    -0.24320
N270        N  0.50653413  0.78636082  0.03980250    -0.24810
N271        N  0.60661200  0.75406969  0.40939751     0.02200
H272        H  0.51552665  0.67540710  0.38814767     0.08090
H273        H  0.70209032  0.77049901  0.42697466     0.08120
N274        N  0.62072830  0.76834842  0.10402131    -0.24860
N275        N  0.67406452  0.87072914  0.47622341    -0.24470
N276        N  0.50492686  0.70457945  0.48890701     0.02560
C277        C  0.59086263  0.88121576  0.14121608     0.43960
C278        C  0.55020904  0.83397990  0.38530829    -0.05720
N279        N  0.67589322  0.79303876  0.47926432    -0.24470
H280        H  0.69905466  0.91731991  0.42150130     0.08110
N281        N  0.55900112  0.84331263  0.12935511    -0.45690
H282        H  0.51732864  0.82432404  0.38216743     0.08100
C283        C  0.58436258  0.69539474  0.37371497     0.43800
C284        C  0.48604802  0.80552442  0.05531140    -0.05220
Co285      Co  0.53413171  0.75870722  0.44895979     0.73820
N286        N  0.62121064  0.86977650  0.38208362    -0.45410
C287        C  0.60028554  0.71016444  0.14559466     0.44060
N288        N  0.48344944  0.66609380  0.47244727    -0.45400
Co289      Co  0.64173271  0.81337419  0.44196206     0.73890
C290        C  0.69845194  0.77638980  0.46309078    -0.05730
C291        C  0.62947947  0.88384477  0.12244208    -0.05290
N292        N  0.50877805  0.70796409  0.04316165    -0.24820
N293        N  0.69837466  0.91413018  0.03185573    -0.45580
H294        H  0.66959339  0.75629631  0.12726045     0.08070
C295        C  0.54867740  0.69781237  0.39106878    -0.05700
Cl296      Cl  0.59046465  0.78955585  0.00875443    -0.48710
C297        C  0.58736807  0.87146116  0.36719116     0.43830
H298        H  0.48701236  0.66089664  0.09744165     0.08040
N299        N  0.61963949  0.73152662  0.38572341    -0.45420
C300        C  0.13071066  0.40933060  0.36037720     0.43680
N301        N  0.18793305  0.42811349  0.39748684     0.02570
C302        C  0.22587597  0.31092355  0.04071732    -0.05310
H303        H  0.08372298  0.30995593  0.07826995     0.08060
C304        C  0.17228172  0.46231378  0.12317985    -0.05660
Co305      Co  0.19008403  0.35600259  0.44112361     0.74180
N306        N  0.13306110  0.33835519  0.02644843    -0.24840
Co307      Co  0.18846729  0.36775848  0.06402437     0.74070
C308        C  0.13272604  0.42709322  0.13824843     0.43780
N309        N  0.22647471  0.50942031  0.02779908     0.02180
N310        N  0.16764283  0.40403161  0.10049854     0.02290
N311        N  0.22946392  0.30422392  0.46876657    -0.45690
H312        H  0.10598660  0.33961236  0.37589597     0.08040
N313        N  0.13370855  0.32578907  0.47856204     0.02570
N314        N  0.24579092  0.39847791  0.09991555     0.02310
C315        C  0.30172635  0.41478281  0.13881953     0.43920
N316        N  0.22022484  0.49760639  0.46439130    -0.24300
C317        C  0.27255366  0.37537324  0.38447559    -0.05220
N318        N  0.16723073  0.44276356  0.37401496    -0.45400
N319        N  0.26575607  0.38204331  0.12231379    -0.45630
C320        C  0.31043399  0.41414117  0.36998437     0.43690
N321        N  0.21300916  0.32684690  0.48362814     0.02560
N322        N  0.29941167  0.49755626  0.47073185    -0.24320
N323        N  0.16703111  0.38688231  0.40068751    -0.24810
N324        N  0.30310428  0.50382777  0.02698634     0.02200
H325        H  0.35063615  0.52323450  0.42081444     0.08090
H326        H  0.32598696  0.48537072  0.12860947     0.08120
N327        N  0.20988249  0.33425153  0.02541261    -0.24860
N328        N  0.19134317  0.44519282  0.09978546    -0.24470
N329        N  0.26795455  0.42957422  0.40320736     0.02560
C330        C  0.06830954  0.30209082  0.00037482     0.43960
C331        C  0.20406127  0.51932471  0.44506693    -0.05720
N332        N  0.26715581  0.43972321  0.09985632    -0.24470
H333        H  0.18441927  0.49545035  0.12835573     0.08110
N334        N  0.09575644  0.30195371  0.46112716    -0.45690
H335        H  0.20139011  0.52326693  0.40821639     0.08100
C336        C  0.36818846  0.53486586  0.00959757     0.43800
C337        C  0.13050196  0.37208815  0.37786899    -0.05220
Co338      Co  0.24415973  0.46385673  0.43303011     0.73820
N339        N  0.20795331  0.52902450  0.04596299    -0.45410
C340        C  0.23718365  0.29689921  0.99878490     0.44060
N341        N  0.30504572  0.44613706  0.38258150    -0.45400
Co342      Co  0.24746897  0.47530055  0.06425012     0.73890
C343        C  0.30232545  0.45288949  0.12394224    -0.05730
C344        C  0.09345176  0.31604627  0.04217011    -0.05290
N345        N  0.24813940  0.38831584  0.40548881    -0.24820
N346        N  0.13172878  0.39160020  0.12349682    -0.45580
H347        H  0.22994206  0.30535967  0.07671608     0.08070
C348        C  0.33960129  0.51872222  0.45646666    -0.05700
Cl349      Cl  0.21831199  0.42220184  0.00347331    -0.48710
C350        C  0.19550287  0.54269172  0.00956586     0.43830
H351        H  0.26552385  0.34326561  0.38145055     0.08040
N352        N  0.34092271  0.52211354  0.04536724    -0.45420
C353        C  0.54131192  0.17638526  0.00701033     0.43680
N354        N  0.51767913  0.21596512  0.48945817     0.02570
C355        C  0.39710904  0.27309984  0.11655132    -0.05310
H356        H  0.35477727  0.10147331  0.12639304     0.08060
C357        C  0.32577192  0.08413673  0.47359244    -0.05660
Co358      Co  0.48141164  0.23761373  0.06943624     0.74180
N359        N  0.40324061  0.16199865  0.10085536    -0.24840
Co360      Co  0.37347364  0.18829640  0.06197061     0.74070
C361        C  0.30916113  0.06840547  0.00195140     0.43780
N362        N  0.41613425  0.15486380  0.41382621     0.02180
N363        N  0.34261755  0.13302645  0.02231643     0.02290
N364        N  0.46715368  0.30054320  0.12213196    -0.45690
H365        H  0.53231167  0.18338433  0.08488437     0.08040
N366        N  0.44455473  0.18112737  0.10298875     0.02570
N367        N  0.34471821  0.21375327  0.02124614     0.02310
C368        C  0.30833154  0.24062369  0.99785235     0.43920
N369        N  0.45728557  0.17901672  0.41503401    -0.24300
C370        C  0.53752295  0.33281139  0.05082814    -0.05220
N371        N  0.53765023  0.19651600  0.47539916    -0.45400
N372        N  0.32119653  0.22937756  0.03626804    -0.45630
C373        C  0.55104709  0.35852188  0.00929351     0.43690
N374        N  0.44906315  0.26299792  0.10266684     0.02560
N375        N  0.45257817  0.25430929  0.40620918    -0.24320
N376        N  0.51172820  0.21170323  0.03338298    -0.24810
N377        N  0.41124331  0.23284863  0.40453487     0.02200
H378        H  0.49984919  0.31090802  0.37382053     0.08090
H379        H  0.31444557  0.21835419  0.42327361     0.08120
N380        N  0.40795735  0.24587885  0.09857703    -0.24860
N381        N  0.34755797  0.12443860  0.48612613    -0.24470
N382        N  0.51409304  0.29338672  0.48055741     0.02560
C383        C  0.42455364  0.12307229  0.13866552     0.43960
C384        C  0.47562912  0.15981570  0.39457870    -0.05720
N385        N  0.34336186  0.20097484  0.47752197    -0.24470
H386        H  0.32085764  0.07232955  0.43838529     0.08110
N387        N  0.45855383  0.15904430  0.12499663    -0.45690
H388        H  0.50912379  0.17266200  0.39090619     0.08100
C389        C  0.42962365  0.28621666  0.36012329     0.43800
C390        C  0.52909576  0.18971206  0.04890079    -0.05220
Co391      Co  0.48627089  0.23621328  0.44715485     0.73820
N392        N  0.40494475  0.11815707  0.39376342    -0.45410
C393        C  0.43676851  0.30953771  0.13193344     0.44060
N394        N  0.53355992  0.33068899  0.46046516    -0.45400
Co395      Co  0.37845681  0.17757300  0.44434951     0.73890
C396        C  0.31961021  0.21578904  0.45980531    -0.05730
C397        C  0.38763698  0.12499619  0.12328714    -0.05290
N398        N  0.51686251  0.29355457  0.03455627    -0.24820
N399        N  0.32102701  0.09425449  0.03896587    -0.45580
H400        H  0.36592998  0.26913749  0.11644665     0.08070
C401        C  0.46705209  0.28794542  0.37889956    -0.05700
Cl402      Cl  0.43093319  0.21450659  0.00508869    -0.48710
C403        C  0.44126229  0.11929688  0.38105741     0.43830
H404        H  0.54136694  0.34219136  0.08690281     0.08040
N405        N  0.39594726  0.25117097  0.37744182    -0.45420
C406        C  0.28237899  0.25948187  0.99753371    -0.12050
C407        C  0.26121078  0.27599720  0.99682899    -0.13610
C408        C  0.44271417  0.59912408  0.01968654    -0.12050
C409        C  0.41065680  0.56675829  0.01482020    -0.13610
C410        C  0.28907141  0.02325610  0.00485313    -0.12050
C411        C  0.27273459  0.98546591  0.00733687    -0.13610
C412        C  0.16998849  0.59634279  0.01292188    -0.12050
C413        C  0.17697619  0.56812547  0.01286983    -0.13610
C414        C  0.40303107  0.81876194  0.00655363    -0.12050
C415        C  0.43700502  0.82280298  0.01086149    -0.13610
C416        C  0.73119628  0.98134924  0.99057310    -0.12050
C417        C  0.74810319  0.01883631  0.99081850    -0.13610
C418        C  0.98569481  0.25585092  0.99874473    -0.12050
C419        C  0.02346088  0.27671192  0.99826107    -0.13610
C420        C  0.60792521  0.17088094  0.00116642    -0.12050
C421        C  0.57389106  0.16690219  0.00466859    -0.13610
C422        C  0.99209872  0.72989620  0.01289316    -0.12050
C423        C  0.03003516  0.75020033  0.01251017    -0.13610
C424        C  0.75871364  0.73106400  0.00208306    -0.12050
C425        C  0.74067987  0.75055608  0.00209153    -0.13610
C426        C  0.84253315  0.43450615  0.00829765    -0.12050
C427        C  0.84341526  0.40262518  0.00802269    -0.13610
C428        C  0.61122339  0.43479726  0.00277163    -0.12050
C429        C  0.58006147  0.40173515  0.00662408    -0.13610
C430        C  0.48406271  0.38301345  0.15824084    -0.15210
C431        C  0.44500080  0.35161193  0.14747789    -0.30390
H432        H  0.51028782  0.37729170  0.15737696     0.13810
H433        H  0.41843450  0.35664652  0.15104755     0.14380
C434        C  0.46347609  0.35724620  0.32776688    -0.15210
C435        C  0.42820996  0.31993811  0.33381994    -0.30390
H436        H  0.49300146  0.36245054  0.34170201     0.13810
H437        H  0.39816875  0.31503531  0.32177551     0.14380
C438        C  0.65898897  0.56364609  0.15043162    -0.15210
C439        C  0.62547705  0.52500393  0.15876840    -0.30390
H440        H  0.65656693  0.59138105  0.15699888     0.13810
H441        H  0.62802399  0.49716712  0.15453414     0.14380
C442        C  0.68786470  0.58287423  0.33582209    -0.15210
C443        C  0.65167435  0.54657870  0.32971751    -0.30390
H444        H  0.69090936  0.61218329  0.32375065     0.13810
H445        H  0.64832446  0.51773988  0.34391544     0.14380
C446        C  0.59812203  0.67216001  0.16594000    -0.15210
C447        C  0.56026672  0.63780136  0.17201821    -0.30390
H448        H  0.62674259  0.67162990  0.17338639     0.13810
H449        H  0.53240259  0.63928633  0.16291642     0.14380
C450        C  0.54851892  0.62017589  0.35527113    -0.15210
C451        C  0.58191045  0.65907122  0.34889205    -0.30390
H452        H  0.52524570  0.61464977  0.38199714     0.13810
H453        H  0.60725349  0.66408543  0.32532401     0.14380
C454        C  0.37012313  0.44859852  0.17615696    -0.15210
C455        C  0.33761697  0.41291891  0.15990594    -0.30390
H456        H  0.36762335  0.47666894  0.17697628     0.13810
H457        H  0.33890327  0.38415435  0.15863490     0.14380
C458        C  0.34901772  0.42003161  0.34730448    -0.15210
C459        C  0.38596350  0.45576304  0.35327361    -0.30390
H460        H  0.34723821  0.39510675  0.32551170     0.13810
H461        H  0.38858710  0.47909836  0.37822910     0.14380
C462        C  0.91350863  0.54483759  0.18420347    -0.15210
C463        C  0.91181012  0.57990940  0.17698025    -0.30390
H464        H  0.88920582  0.51516361  0.17049170     0.13810
H465        H  0.93685372  0.61000985  0.18901960     0.14380
C466        C  0.92887139  0.56717132  0.36575957    -0.15210
C467        C  0.91995219  0.52792590  0.35368764    -0.30390
H468        H  0.96091972  0.59313302  0.36310170     0.13810
H469        H  0.88754095  0.50253343  0.35363957     0.14380
C470        C  0.91318769  0.32350433  0.17034522    -0.15210
C471        C  0.91544356  0.36050720  0.17900112    -0.30390
H472        H  0.93816065  0.31801793  0.18153052     0.13810
H473        H  0.89111290  0.36612952  0.16596067     0.14380
C474        C  0.91901512  0.38284145  0.35146254    -0.15210
C475        C  0.92385406  0.34877040  0.35534515    -0.30390
H476        H  0.88892775  0.38021191  0.35969275     0.13810
H477        H  0.95364498  0.35122787  0.34582328     0.14380
C478        C  0.09432268  0.46402654  0.15669033    -0.15210
C479        C  0.09865929  0.43000204  0.16222575    -0.30390
H480        H  0.11347096  0.48797255  0.13125811     0.13810
H481        H  0.07692768  0.40417927  0.18434188     0.14380
C482        C  0.09499544  0.41223059  0.34106677    -0.15210
C483        C  0.09786249  0.44987937  0.33822167    -0.30390
H484        H  0.06623058  0.38394211  0.33163248     0.13810
H485        H  0.12676318  0.47737255  0.34924661     0.14380
C486        C  0.09725889  0.66434593  0.16845216    -0.15210
C487        C  0.09075955  0.62545228  0.15948041    -0.30390
H488        H  0.07742194  0.66887859  0.19317520     0.13810
H489        H  0.10813620  0.62082133  0.13162557     0.14380
C490        C  0.09625972  0.63895906  0.34176335    -0.15210
C491        C  0.09184169  0.67265066  0.34832025    -0.30390
H492        H  0.12603678  0.64122617  0.35049732     0.13810
H493        H  0.06214367  0.67117484  0.34147594     0.14380
C494        C  0.39224296  0.91421934  0.14320120    -0.15210
C495        C  0.35410107  0.90758782  0.15639025    -0.30390
H496        H  0.39495122  0.89560622  0.11551127     0.13810
H497        H  0.35143197  0.92853892  0.18098556     0.14380
C498        C  0.37109174  0.91467185  0.32905896    -0.15210
C499        C  0.34026408  0.92162626  0.34413189    -0.30390
H500        H  0.36726262  0.88375398  0.33435155     0.13810
H501        H  0.34333237  0.95234303  0.34044789     0.14380
C502        C  0.58550581  0.91410748  0.16499988    -0.15210
C503        C  0.54713701  0.90881641  0.17565661    -0.30390
H504        H  0.61364965  0.94366279  0.17257326     0.13810
H505        H  0.51909271  0.87948897  0.16703917     0.14380
C506        C  0.55328236  0.90640853  0.33066206    -0.15210
C507        C  0.58895540  0.90838773  0.34446518    -0.30390
H508        H  0.52404876  0.87680556  0.33390838     0.13810
H509        H  0.61870877  0.93753699  0.34171991     0.14380
C510        C  0.61951995  0.07753577  0.13710764    -0.15210
C511        C  0.65894463  0.08595319  0.14715097    -0.30390
H512        H  0.61404786  0.09255831  0.10765760     0.13810
H513        H  0.66375724  0.06875510  0.17478405     0.14380
C514        C  0.66299009  0.09492787  0.35695097    -0.15210
C515        C  0.62370656  0.08090540  0.37399019    -0.30390
H516        H  0.66712106  0.08192175  0.32472453     0.13810
H517        H  0.61877867  0.09053913  0.40805581     0.14380
C518        C  0.46057224  0.08412404  0.16219910    -0.15210
C519        C  0.42581200  0.08790515  0.16202502    -0.30390
H520        H  0.48854735  0.10660517  0.14323918     0.13810
H521        H  0.39716950  0.06423434  0.17894585     0.14380
C522        C  0.48371030  0.08901614  0.35154203    -0.15210
C523        C  0.44550737  0.08463648  0.36045016    -0.30390
H524        H  0.51226090  0.11823157  0.35862183     0.13810
H525        H  0.41720918  0.05558753  0.35168604     0.14380
O526        O  0.43587357  0.95143152  0.81345704    -0.78920
O527        O  0.53820204  0.96223645  0.66624014    -0.78940
O528        O  0.42364436  0.97700111  0.69553120    -0.78950
O529        O  0.57869982  0.96769311  0.79761198    -0.78890
O530        O  0.46250223  0.95635176  0.66066706    -0.79020
O531        O  0.51428499  0.94813211  0.82483215    -0.78930
O532        O  0.51682081  0.93463680  0.73430447    -0.78920
O533        O  0.40449477  0.98099884  0.77715185    -0.78960
C534        C  0.40275110  0.95478565  0.80611474     1.10710
C535        C  0.52902962  0.93235891  0.69394098     1.10660
C536        C  0.42688335  0.95215675  0.66841882     1.10790
C537        C  0.54736574  0.94388254  0.82311725     1.10670
O538        O  0.55642088  0.03884024  0.84510937    -0.78920
O539        O  0.50327224  0.04887537  0.65837843    -0.79000
O540        O  0.46622888  0.05319836  0.76592094    -0.78930
O541        O  0.59797450  0.01105158  0.71378915    -0.78910
O542        O  0.57968009  0.05049823  0.67398693    -0.78960
O543        O  0.48742827  0.04266772  0.83238577    -0.78930
O544        O  0.59454291  0.04684020  0.78509889    -0.78890
O545        O  0.46646227  0.04909091  0.72070162    -0.78960
Co546      Co  0.50021964  0.99645103  0.81863841     1.51530
Co547      Co  0.52006685  0.00537716  0.67065212     1.51690
Co548      Co  0.45774711  0.99661777  0.75266239     1.51570
Co549      Co  0.55271169  0.99126676  0.76267615     1.51470
O550        O  0.51603564  0.01168073  0.74298149    -1.40850
C551        C  0.59154842  0.05801185  0.82499047     1.10700
C552        C  0.48287543  0.06309272  0.68037281     1.10790
C553        C  0.47595118  0.06357000  0.80801242     1.10720
C554        C  0.60764724  0.04195102  0.68695732     1.10700
O555        O  0.97792118  0.51428022  0.86791620    -0.78920
O556        O  0.94487807  0.42767846  0.69868391    -0.78940
O557        O  0.98487873  0.56430916  0.71236092    -0.78950
O558        O  0.98907163  0.41611889  0.80366789    -0.78890
O559        O  0.94343915  0.49810092  0.70224871    -0.79020
O560        O  0.94969248  0.44545635  0.81104678    -0.78930
O561        O  0.99004129  0.40629588  0.71049967    -0.78920
O562        O  0.96470932  0.53376067  0.80056901    -0.78960
C563        C  0.95868312  0.52875016  0.84490874     1.10770
C564        C  0.95332018  0.39866555  0.70087009     1.10660
C565        C  0.94945537  0.53457935  0.70002860     1.10790
C566        C  0.95429675  0.41373752  0.81475449     1.10670
O567        O  0.03181541  0.48194296  0.85254775    -0.78920
O568        O  0.02862662  0.54416779  0.65720271    -0.79000
O569        O  0.03693977  0.60538600  0.78577511    -0.78930
O570        O  0.07196649  0.47985160  0.70412730    -0.78910
O571        O  0.02516811  0.46733106  0.65001794    -0.78960
O572        O  0.05260592  0.56180220  0.82186464    -0.78930
O573        O  0.07445168  0.48937205  0.79625238    -0.78890
O574        O  0.06748746  0.57558100  0.71885957    -0.78960
Co575      Co  0.99954097  0.50234892  0.81281262     1.51530
Co576      Co  0.98652882  0.48503678  0.68096559     1.51690
Co577      Co  0.01802388  0.55164623  0.75974105     1.51570
Co578      Co  0.03099677  0.45151516  0.75350264     1.51470
O579        O  0.01036807  0.49382771  0.74590869    -1.40850
C580        C  0.06524524  0.48300222  0.83857330     1.10700
C581        C  0.06153841  0.57452674  0.67552964     1.10790
C582        C  0.05832444  0.59918167  0.81580537     1.10720
C583        C  0.05982808  0.47080892  0.66286799     1.10700
O584        O  0.48557141  0.45739497  0.85146195    -0.78920
O585        O  0.55428034  0.52624352  0.65805499    -0.78940
O586        O  0.48486232  0.41822782  0.70314192    -0.78950
O587        O  0.61314400  0.57375346  0.78764400    -0.78890
O588        O  0.47608448  0.45430438  0.64807008    -0.79020
O589        O  0.56784967  0.51443229  0.82270293    -0.78930
O590        O  0.58209346  0.51460099  0.72020343    -0.78920
O591        O  0.49062228  0.42146473  0.79468251    -0.78960
C592        C  0.48497149  0.42456991  0.83710966     1.10770
C593        C  0.58311778  0.52169493  0.67709582     1.10660
C594        C  0.47789385  0.42229944  0.66146997     1.10790
C595        C  0.60610575  0.54528455  0.81691935     1.10670
O596        O  0.52124982  0.54259972  0.86871189    -0.78920
O597        O  0.43764041  0.49707375  0.69499096    -0.79000
O598        O  0.42012752  0.43740430  0.80076590    -0.78930
O599        O  0.57525806  0.58825284  0.71444018    -0.78910
O600        O  0.50987941  0.56682322  0.70187520    -0.78960
O601        O  0.45264402  0.50594601  0.81126773    -0.78930
O602        O  0.54265869  0.57707398  0.80215264    -0.78890
O603        O  0.41242945  0.42985603  0.70657381    -0.78960
Co604      Co  0.50902460  0.51077324  0.81287729     1.51530
Co605      Co  0.49497430  0.51056112  0.67985959     1.51690
Co606      Co  0.45564733  0.43075346  0.75118675     1.51570
Co607      Co  0.55925255  0.54103190  0.76105212     1.51470
O608        O  0.50053841  0.49322294  0.74536343    -1.40850
C609        C  0.53645626  0.57684894  0.84641522     1.10700
C610        C  0.40718750  0.46024912  0.69532714     1.10790
C611        C  0.41958428  0.47015899  0.81382809     1.10720
C612        C  0.54723333  0.59596566  0.70081898     1.10700
C613        C  0.89234403  0.57891297  0.87742567     0.43680
N614        N  0.83385637  0.56425098  0.90959942     0.02570
C615        C  0.78133784  0.68262151  0.54820274    -0.05310
H616        H  0.92256930  0.68883422  0.59590321     0.08060
C617        C  0.84135264  0.53599284  0.62765600    -0.05660
Co618      Co  0.83070371  0.63823819  0.94734501     0.74180
N619        N  0.87818601  0.66213586  0.53967059    -0.24840
Co620      Co  0.81922822  0.62698734  0.57139298     0.74070
C621        C  0.87808250  0.57299273  0.64674444     0.43780
N622        N  0.79596247  0.49313168  0.52412777     0.02180
N623        N  0.84070252  0.59210081  0.60761751     0.02290
N624        N  0.79098300  0.69273451  0.96749246    -0.45690
H625        H  0.91938878  0.64987159  0.88881395     0.08040
N626        N  0.88371045  0.66826596  0.98951734     0.02570
N627        N  0.75818363  0.58952628  0.60103441     0.02310
C628        C  0.69662057  0.56515650  0.63226399     0.43920
N629        N  0.79886476  0.49811953  0.97901057    -0.24300
C630        C  0.75386199  0.62079764  0.88426311    -0.05220
N631        N  0.85433144  0.54732397  0.88977521    -0.45400
N632        N  0.73331908  0.60103549  0.62256358    -0.45630
C633        C  0.71605354  0.58321029  0.86838232     0.43690
N634        N  0.80473800  0.66859624  0.98487142     0.02560
N635        N  0.71928395  0.49809862  0.97601981    -0.24320
N636        N  0.85600000  0.60549614  0.91177988    -0.24810
N637        N  0.71566583  0.49190325  0.51799315     0.02200
H638        H  0.67129447  0.47611242  0.92329818     0.08090
H639        H  0.67905246  0.49731650  0.61714513     0.08120
N640        N  0.79915061  0.66092548  0.53280349    -0.24860
N641        N  0.82058171  0.55098494  0.60362129    -0.24470
N642        N  0.75448302  0.56511374  0.90623119     0.02560
C643        C  0.94691902  0.70495828  0.01324426     0.43960
C644        C  0.81854404  0.47811291  0.96380386    -0.05720
N645        N  0.73975169  0.54851033  0.59676758    -0.24470
H646        H  0.83269691  0.50336887  0.62964074     0.08110
N647        N  0.92312014  0.69109571  0.97482303    -0.45690
H648        H  0.82408154  0.47340842  0.92790636     0.08100
C649        C  0.65308602  0.46284831  0.49268658     0.43800
C650        C  0.89366587  0.61794349  0.89135387    -0.05220
Co651      Co  0.77602659  0.53052012  0.94174769     0.73820
N652        N  0.81505409  0.47416489  0.54199813    -0.45410
C653        C  0.77548910  0.70112009  0.50667697     0.44060
N654        N  0.71869653  0.54994130  0.88319555    -0.45400
Co655      Co  0.76763154  0.52011986  0.56139221     0.73890
C656        C  0.70129590  0.53056502  0.61579510    -0.05730
C657        C  0.91608268  0.68489865  0.55905329    -0.05290
N658        N  0.77554401  0.60642930  0.90787006    -0.24820
N659        N  0.87556971  0.60664319  0.63253107    -0.45580
H660        H  0.77400433  0.68541639  0.58406647     0.08070
C661        C  0.68012953  0.47932353  0.95948364    -0.05700
Cl662      Cl  0.79912837  0.57831168  0.50577444    -0.48710
C663        C  0.83196694  0.46485879  0.50564815     0.43830
H664        H  0.76242877  0.65331761  0.88058784     0.08040
N665        N  0.67592908  0.47125197  0.53160709    -0.45420
C666        C  0.70575711  0.12963297  0.86434948     0.43680
N667        N  0.74791211  0.18546559  0.90135450     0.02570
C668        C  0.91710901  0.21726787  0.54010816    -0.05310
H669        H  0.77288304  0.07976001  0.57711525     0.08060
C670        C  0.71527566  0.17548032  0.62294228    -0.05660
Co671      Co  0.82290532  0.18396928  0.93912298     0.74180
N672        N  0.79597570  0.12880586  0.52523036    -0.24840
Co673      Co  0.82280851  0.18407162  0.56282914     0.74070
C674        C  0.70652005  0.13422853  0.63562677     0.43780
N675        N  0.72274453  0.22561730  0.52625334     0.02180
N676        N  0.76539006  0.16544366  0.59856798     0.02290
N677        N  0.91582497  0.22205694  0.96303493    -0.45690
H678        H  0.74931619  0.10206564  0.87347054     0.08040
N679        N  0.79612277  0.12770160  0.97595075     0.02570
N680        N  0.85059485  0.24131219  0.59878058     0.02310
C681        C  0.88913901  0.29469577  0.64114073     0.43920
N682        N  0.71685262  0.21939518  0.97311459    -0.24300
C683        C  0.88629191  0.26389802  0.88047218    -0.05220
N684        N  0.71123868  0.16649899  0.87985392    -0.45400
N685        N  0.88545388  0.25878645  0.62397647    -0.45630
C686        C  0.88699314  0.30218668  0.86531567     0.43690
N687        N  0.87687974  0.20519491  0.97925956     0.02560
N688        N  0.79886233  0.29625432  0.97635523    -0.24320
N689        N  0.76691133  0.16314699  0.90154889    -0.24810
N690        N  0.80624035  0.30077129  0.52382076     0.02200
H691        H  0.82634572  0.34693141  0.92644681     0.08090
H692        H  0.84631425  0.32268616  0.62883972     0.08120
N693        N  0.87812268  0.20372023  0.52480518    -0.24860
N694        N  0.75107738  0.19179227  0.59913660    -0.24470
N695        N  0.82979677  0.26319195  0.90296067     0.02560
C696        C  0.76665811  0.06409699  0.49924417     0.43960
C697        C  0.67758279  0.20076746  0.95688756    -0.05720
N698        N  0.83253369  0.26439740  0.59769319    -0.24470
H699        H  0.69592055  0.18963078  0.62773035     0.08110
N700        N  0.78025886  0.08981046  0.95776055    -0.45690
H701        H  0.66838782  0.19602752  0.92079325     0.08100
C702        C  0.84184663  0.36492376  0.50406606     0.43800
C703        C  0.74283813  0.12739503  0.87811276    -0.05220
Co704      Co  0.77295264  0.24164871  0.93757871     0.73820
N705        N  0.68481226  0.20792735  0.54507224    -0.45410
C706        C  0.94225808  0.22661329  0.49796902     0.44060
N707        N  0.85095690  0.29938422  0.88059934    -0.45400
Co708      Co  0.77805078  0.24635416  0.56224421     0.73890
C709        C  0.85420291  0.29839754  0.62353448    -0.05730
C710        C  0.77742268  0.08932963  0.54099326    -0.05290
N711        N  0.84961211  0.24171765  0.90369817    -0.24820
N712        N  0.73860681  0.12929476  0.61925487    -0.45580
H713        H  0.92651913  0.22035676  0.57610329     0.08070
C714        C  0.82032102  0.33614582  0.96213667    -0.05700
Cl715      Cl  0.80026115  0.21478558  0.50202466    -0.48710
C716        C  0.65819318  0.19377993  0.50925835     0.43830
H717        H  0.90983519  0.25483132  0.87562559     0.08040
N718        N  0.82757688  0.33901492  0.54089657    -0.45420
C719        C  0.31195722  0.86616783  0.87410582     0.43680
N720        N  0.26543381  0.81264783  0.91099100     0.02570
C721        C  0.09840237  0.77155702  0.55847132    -0.05310
H722        H  0.23811413  0.91314738  0.59967173     0.08060
C723        C  0.31147889  0.83353506  0.61539100    -0.05660
Co724      Co  0.19434318  0.82039495  0.95098213     0.74180
N725        N  0.21518987  0.86878256  0.54299161    -0.24840
Co726      Co  0.19369065  0.80999892  0.57346655     0.74070
C727        C  0.31273186  0.87043720  0.63566623     0.43780
N728        N  0.30215564  0.78776226  0.51307495     0.02180
N729        N  0.25240287  0.83148965  0.60428924     0.02290
N730        N  0.10065959  0.78450467  0.97571199    -0.45690
H731        H  0.27583959  0.90192362  0.88630893     0.08040
N732        N  0.22293600  0.87578383  0.98984334     0.02570
N733        N  0.17206355  0.74922972  0.60141226     0.02310
C734        C  0.13547649  0.68749406  0.63170344     0.43920
N735        N  0.29452048  0.77606404  0.97999406    -0.24300
C736        C  0.12981748  0.74486906  0.88915010    -0.05220
N737        N  0.30150730  0.82776763  0.88855301    -0.45400
N738        N  0.13687212  0.72468868  0.62519632    -0.45630
C739        C  0.12669143  0.70572884  0.87311649     0.43690
N740        N  0.13945209  0.79992642  0.99148586     0.02560
N741        N  0.21046128  0.70175455  0.98335756    -0.24320
N742        N  0.25068465  0.83871042  0.91294001    -0.24810
N743        N  0.22387993  0.70785385  0.50958852     0.02200
H744        H  0.18165251  0.65203161  0.93296454     0.08090
H745        H  0.18353151  0.66864124  0.60881778     0.08120
N746        N  0.13708465  0.78960543  0.54008171    -0.24860
N747        N  0.27327258  0.81168202  0.59628196    -0.24470
N748        N  0.18245211  0.73960474  0.91316482     0.02560
C749        C  0.24133348  0.93533577  0.52432155     0.43960
C750        C  0.33367338  0.79222881  0.96302265    -0.05720
N751        N  0.19375895  0.73034695  0.59280484    -0.24470
H752        H  0.33603703  0.82563177  0.61344897     0.08110
N753        N  0.24040243  0.91447847  0.97299329    -0.45690
H754        H  0.34288834  0.79625199  0.92676392     0.08100
C755        C  0.19496001  0.64555933  0.48350065     0.43800
C756        C  0.27821440  0.87399298  0.88990624    -0.05220
Co757      Co  0.23825717  0.75688475  0.94614743     0.73820
N758        N  0.34062496  0.80329065  0.52890420    -0.45410
C759        C  0.07170677  0.76552074  0.51909773     0.44060
N760        N  0.16044134  0.70481382  0.88918278    -0.45400
Co761      Co  0.24865027  0.75899129  0.55363223     0.73890
C762        C  0.17335277  0.69148504  0.61071229    -0.05730
C763        C  0.23238061  0.90664151  0.56294592    -0.05290
N764        N  0.16547064  0.76372748  0.91397976    -0.24820
N765        N  0.27491700  0.86693505  0.62762272    -0.45580
H766        H  0.09027701  0.76409189  0.59480784     0.08070
C767        C  0.18804007  0.66215428  0.96877517    -0.05700
Cl768      Cl  0.21862813  0.79059247  0.50346936    -0.48710
C769        C  0.36641869  0.82004836  0.49222804     0.43830
H770        H  0.10862186  0.75674581  0.88358887     0.08040
N771        N  0.20871639  0.66846572  0.52244809    -0.45420
C772        C  0.47019131  0.81402037  0.50442545     0.43680
N773        N  0.50356925  0.78376082  0.99414569     0.02570
C774        C  0.63128870  0.74331209  0.62689816    -0.05310
H775        H  0.65355694  0.90528902  0.62476254     0.08060
C776        C  0.69301812  0.90831956  0.95331498    -0.05660
Co777      Co  0.53804103  0.76187092  0.56988687     0.74180
N778        N  0.61116177  0.84230552  0.60041155    -0.24840
Co779      Co  0.64628749  0.81955542  0.56365163     0.74070
C780        C  0.70998448  0.93677983  0.99230720     0.43780
N781        N  0.60126037  0.83151633  0.90788604     0.02180
N782        N  0.67528191  0.87346455  0.52214723     0.02290
N783        N  0.56034213  0.70693135  0.62967705    -0.45690
H784        H  0.47753811  0.80778417  0.58291903     0.08040
N785        N  0.56992068  0.81862326  0.60368317     0.02570
N786        N  0.67856069  0.79558158  0.52513474     0.02310
C787        C  0.71568004  0.76850973  0.50434182     0.43920
N788        N  0.56020200  0.81070330  0.91381622    -0.24300
C789        C  0.48603273  0.66615303  0.55095518    -0.05220
N790        N  0.48187915  0.80015654  0.97702179    -0.45400
N791        N  0.70203260  0.78064426  0.54176724    -0.45630
C792        C  0.47168592  0.64035314  0.50942223     0.43690
N793        N  0.57437278  0.74185408  0.60508757     0.02560
N794        N  0.56103026  0.73228175  0.91773882    -0.24320
N795        N  0.50442706  0.78394241  0.53263021    -0.24810
N796        N  0.60212409  0.75168265  0.91213518     0.02200
H797        H  0.51046570  0.67189251  0.89705140     0.08090
H798        H  0.69964355  0.77009854  0.92432484     0.08120
N799        N  0.61578014  0.76382878  0.60281839    -0.24860
N800        N  0.67246487  0.87030023  0.97306313    -0.24470
N801        N  0.50483209  0.70535325  0.99757662     0.02560
C802        C  0.58230761  0.87451390  0.63994546     0.43960
C803        C  0.54356161  0.83058869  0.89121363    -0.05720
N804        N  0.67467638  0.79322004  0.97738002    -0.24470
H805        H  0.69545510  0.91502667  0.91645008     0.08110
N806        N  0.55170919  0.83646958  0.62668164    -0.45690
H807        H  0.51058699  0.82100648  0.89016282     0.08100
C808        C  0.57873401  0.69166474  0.87941219     0.43800
C809        C  0.48287670  0.80241055  0.54717835    -0.05220
Co810      Co  0.53152645  0.75767109  0.95528093     0.73820
N811        N  0.61428544  0.86582038  0.88238157    -0.45410
C812        C  0.59437395  0.70559873  0.64479328     0.44060
N813        N  0.48382413  0.66635455  0.98269625    -0.45400
Co814      Co  0.63849615  0.81192340  0.94156937     0.73890
C815        C  0.69724367  0.77687732  0.96046153    -0.05730
C816        C  0.62203493  0.87882707  0.62216653    -0.05290
N817        N  0.50683236  0.70554389  0.53468490    -0.24820
N818        N  0.69615256  0.91276655  0.53684924    -0.45580
H819        H  0.66417447  0.75310476  0.63060738     0.08070
C820        C  0.54364384  0.69466865  0.89780433    -0.05700
Cl821      Cl  0.59021607  0.78845511  0.50619129    -0.48710
C822        C  0.57953873  0.86726115  0.87083631     0.43830
H823        H  0.48128316  0.65689420  0.58718015     0.08040
N824        N  0.61435515  0.72826340  0.88897960    -0.45420
C825        C  0.13272846  0.43580945  0.87881387     0.43680
N826        N  0.19079073  0.44748740  0.90939207     0.02570
C827        C  0.22881167  0.30721635  0.54751541    -0.05310
H828        H  0.08306717  0.30318296  0.57552843     0.08060
C829        C  0.16418399  0.45877836  0.60382601    -0.05660
Co830      Co  0.18916519  0.36923611  0.94210507     0.74180
N831        N  0.13307709  0.32905903  0.52431707    -0.24840
Co832      Co  0.18753371  0.36349707  0.56212924     0.74070
C833        C  0.12468259  0.42375183  0.61905014     0.43780
N834        N  0.21998628  0.50119391  0.50995074     0.02180
N835        N  0.16345503  0.40035089  0.59125323     0.02290
N836        N  0.22743846  0.31297580  0.96191269    -0.45690
H837        H  0.10474057  0.36431665  0.88410190     0.08040
N838        N  0.13292598  0.33842140  0.98043860     0.02570
N839        N  0.24363723  0.39902101  0.59836123     0.02310
C840        C  0.29884978  0.41924087  0.63988110     0.43920
N841        N  0.22722535  0.51036890  0.98198911    -0.24300
C842        C  0.26896859  0.38788768  0.88063326    -0.05220
N843        N  0.17100331  0.46620506  0.89215168    -0.45400
N844        N  0.26371164  0.38504583  0.62451780    -0.45630
C845        C  0.30761298  0.42593686  0.86604449     0.43690
N846        N  0.21076765  0.33476738  0.97935140     0.02560
N847        N  0.30390746  0.50496745  0.98112252    -0.24320
N848        N  0.16787374  0.40618542  0.90843548    -0.24810
N849        N  0.29847055  0.49965413  0.51648522     0.02200
H850        H  0.35504894  0.53128383  0.93114498     0.08090
H851        H  0.32214752  0.48870411  0.62294723     0.08120
N852        N  0.21213869  0.32923292  0.52953633    -0.24860
N853        N  0.18569920  0.44146412  0.58673836    -0.24470
N854        N  0.26884064  0.44291560  0.90598108     0.02560
C855        C  0.06922362  0.28887632  0.49782972     0.43960
C856        C  0.20927024  0.53201049  0.96727392    -0.05720
N857        N  0.26397655  0.44020698  0.59480126    -0.24470
H858        H  0.17459581  0.49187171  0.60440945     0.08110
N859        N  0.09447615  0.31681706  0.96330751    -0.45690
H860        H  0.20486308  0.53798699  0.93156436     0.08100
C861        C  0.36353462  0.53332491  0.49921228     0.43800
C862        C  0.13084674  0.39579055  0.88839453    -0.05220
Co863      Co  0.24829750  0.47731493  0.94363590     0.73820
N864        N  0.20458469  0.52517051  0.52338561    -0.45410
C865        C  0.23996554  0.29083026  0.50698302     0.44060
N866        N  0.30511533  0.45862999  0.88320921    -0.45400
Co867      Co  0.24247599  0.47138176  0.55280051     0.73890
C868        C  0.29894402  0.45583130  0.62017525    -0.05730
C869        C  0.09341380  0.30664677  0.53966100    -0.05290
N870        N  0.24693439  0.40160091  0.90539209    -0.24820
N871        N  0.12620773  0.38817718  0.61109026    -0.45580
H872        H  0.23261358  0.30327992  0.58409336     0.08070
C873        C  0.34410279  0.52478711  0.96683144    -0.05700
Cl874      Cl  0.21602477  0.41355376  0.49731761    -0.48710
C875        C  0.19283726  0.53646896  0.48429103     0.43830
H876        H  0.25973103  0.35544106  0.87465023     0.08040
N877        N  0.33616443  0.52147665  0.53488353    -0.45420
C878        C  0.54872307  0.18445949  0.51423245     0.43680
N879        N  0.51414608  0.21320193  0.98759202     0.02570
C880        C  0.39256637  0.26920253  0.61373893    -0.05310
H881        H  0.36660630  0.10477015  0.63555771     0.08060
C882        C  0.32576940  0.09448317  0.96039508    -0.05660
Co883      Co  0.48324782  0.24252968  0.56717237     0.74180
N884        N  0.41022045  0.16559090  0.60627413    -0.24840
Co885      Co  0.37538772  0.18451577  0.56575368     0.74070
C886        C  0.31060737  0.06166568  0.51728539     0.43780
N887        N  0.41631939  0.16791605  0.90518781     0.02180
N888        N  0.34619045  0.12685512  0.53198669     0.02290
N889        N  0.46351730  0.30476211  0.61181099    -0.45690
H890        H  0.54126651  0.19762940  0.59038323     0.08040
N891        N  0.45155069  0.18822121  0.60665261     0.02570
N892        N  0.34233960  0.20317483  0.52343417     0.02310
C893        C  0.30361222  0.22723833  0.50049677     0.43920
N894        N  0.45748170  0.18869718  0.90894343    -0.24300
C895        C  0.53279601  0.33583666  0.53873405    -0.05220
N896        N  0.53240755  0.19308074  0.97045934    -0.45400
N897        N  0.31901453  0.21881310  0.53850871    -0.45630
C898        C  0.54462597  0.35862614  0.49517629     0.43690
N899        N  0.44808361  0.26594003  0.59675412     0.02560
N900        N  0.46025197  0.26910937  0.91238252    -0.24320
N901        N  0.51648522  0.21838719  0.53508249    -0.24810
N902        N  0.41906279  0.25035088  0.90813627     0.02200
H903        H  0.51096061  0.33030441  0.89227000     0.08090
H904        H  0.32180045  0.23466647  0.92099240     0.08120
N905        N  0.40668098  0.24438326  0.59663527    -0.24860
N906        N  0.34610021  0.13403908  0.97632784    -0.24470
N907        N  0.51912439  0.29483938  0.98882354     0.02560
C908        C  0.43779267  0.13340219  0.64601235     0.43960
C909        C  0.47390226  0.17009902  0.88336692    -0.05720
N910        N  0.34759530  0.21409828  0.97536486    -0.24470
H911        H  0.32384092  0.08517980  0.92440644     0.08110
N912        N  0.46920388  0.16999394  0.62957953    -0.45690
H913        H  0.50705577  0.18089533  0.87970599     0.08100
C914        C  0.44280335  0.31176613  0.87823828     0.43800
C915        C  0.53658441  0.20028408  0.55376542    -0.05220
Co916      Co  0.48862480  0.24182741  0.94884652     0.73820
N917        N  0.40307965  0.13461202  0.87768230    -0.45410
C918        C  0.43058532  0.30948973  0.62257057     0.44060
N919        N  0.54018675  0.33335103  0.97226676    -0.45400
Co920      Co  0.38124368  0.19096720  0.94015611     0.73890
C921        C  0.32552549  0.23060251  0.95755909    -0.05730
C922        C  0.39842708  0.13040744  0.63111373    -0.05290
N923        N  0.51334079  0.29557661  0.52623424    -0.24820
N924        N  0.32411212  0.08968604  0.55211418    -0.45580
H925        H  0.36004767  0.26117166  0.61654175     0.08070
C926        C  0.47781115  0.30754122  0.89374155    -0.05700
Cl927      Cl  0.43061398  0.21008846  0.50602295    -0.48710
C928        C  0.43798223  0.13407646  0.86278803     0.43830
H929        H  0.53797816  0.34770867  0.57390340     0.08040
N930        N  0.40713499  0.27493823  0.88738859    -0.45420
C931        C  0.27993572  0.24838284  0.50208987    -0.12050
C932        C  0.26119891  0.26724484  0.50549736    -0.13610
C933        C  0.43840676  0.59818023  0.50720245    -0.12050
C934        C  0.40588748  0.56605509  0.50312916    -0.13610
C935        C  0.28537505  0.01743823  0.52319704    -0.12050
C936        C  0.26468278  0.97996491  0.52546912    -0.13610
C937        C  0.18614874  0.60347207  0.48109699    -0.12050
C938        C  0.18551738  0.57074006  0.48199084    -0.13610
C939        C  0.40833178  0.82815903  0.49367750    -0.12050
C940        C  0.43932887  0.82600007  0.49940075    -0.13610
C941        C  0.73015184  0.98169329  0.49772960    -0.12050
C942        C  0.74694473  0.01934450  0.49731375    -0.13610
C943        C  0.98690300  0.24660133  0.49517236    -0.12050
C944        C  0.02457975  0.26509679  0.49494327    -0.13610
C945        C  0.61477474  0.17805282  0.51341233    -0.12050
C946        C  0.58100280  0.17469916  0.51474042    -0.13610
C947        C  0.98939614  0.72611794  0.52052615    -0.12050
C948        C  0.02703614  0.74489815  0.51969963    -0.13610
C949        C  0.75616184  0.72647278  0.50485517    -0.12050
C950        C  0.73849997  0.74648918  0.50564188    -0.13610
C951        C  0.84800118  0.43729149  0.50803717    -0.12050
C952        C  0.85159575  0.40699107  0.50716335    -0.13610
C953        C  0.61001615  0.43240850  0.49062421    -0.12050
C954        C  0.57695616  0.40077834  0.49078741    -0.13610
C955        C  0.46760569  0.38662909  0.63057516    -0.15210
C956        C  0.43464526  0.34853840  0.64142188    -0.30390
H957        H  0.48974340  0.39016615  0.60327106     0.13810
H958        H  0.41179999  0.34580073  0.66744272     0.14380
C959        C  0.47550196  0.38868398  0.86780060    -0.15210
C960        C  0.44586835  0.34929178  0.85575379    -0.30390
H961        H  0.49455450  0.39408961  0.89850780     0.13810
H962        H  0.42494405  0.34449851  0.82700079     0.14380
C963        C  0.65859198  0.56166998  0.65523586    -0.15210
C964        C  0.61992506  0.52760475  0.64960492    -0.30390
H965        H  0.66238488  0.58704664  0.67766665     0.13810
H966        H  0.61530421  0.50321555  0.62517049     0.14380
C967        C  0.67993946  0.58122246  0.84359701    -0.15210
C968        C  0.64167787  0.54627802  0.84214544    -0.30390
H969        H  0.68476737  0.60988034  0.82727710     0.13810
H970        H  0.63616401  0.51821008  0.86052107     0.14380
C971        C  0.59259921  0.66917380  0.66926970    -0.15210
C972        C  0.55525010  0.63692805  0.68271588    -0.30390
H973        H  0.62121992  0.66796190  0.67407801     0.13810
H974        H  0.52728043  0.63919254  0.67688318     0.14380
C975        C  0.54398734  0.61541042  0.87007421    -0.15210
C976        C  0.57567343  0.65380177  0.85795711    -0.30390
H977        H  0.52316260  0.61201826  0.89884123     0.13810
H978        H  0.59890867  0.65726163  0.83211052     0.14380
C979        C  0.36661865  0.45470517  0.67955375    -0.15210
C980        C  0.33392812  0.41866805  0.66447900    -0.30390
H981        H  0.36543606  0.48342654  0.67630799     0.13810
H982        H  0.33418107  0.38943388  0.66738587     0.14380
C983        C  0.34517203  0.42920528  0.84213471    -0.15210
C984        C  0.38065740  0.46642140  0.83470109    -0.30390
H985        H  0.34394571  0.40029576  0.83172397     0.13810
H986        H  0.38171139  0.49515098  0.84562511     0.14380
C987        C  0.91404453  0.53919147  0.68279853    -0.15210
C988        C  0.91518387  0.57480586  0.66991094    -0.30390
H989        H  0.88500405  0.50976570  0.67796832     0.13810
H990        H  0.94362542  0.60485191  0.67440421     0.14380
C991        C  0.92582549  0.57239340  0.85743194    -0.15210
C992        C  0.92786305  0.53766515  0.86763888    -0.30390
H993        H  0.94902854  0.59618686  0.83435538     0.13810
H994        H  0.90704166  0.51581321  0.89393181     0.14380
C995        C  0.92488988  0.32760012  0.66719416    -0.15210
C996        C  0.91938376  0.35657969  0.68936340    -0.30390
H997        H  0.95584256  0.33098848  0.66341578     0.13810
H998        H  0.88792962  0.35203267  0.69277305     0.14380
C999        C  0.91931537  0.37448964  0.83457859    -0.15210
C1000       C  0.92186387  0.33976574  0.84257933    -0.30390
H1001       H  0.89072336  0.37463407  0.84403584     0.13810
H1002       H  0.95032618  0.33924725  0.83357426     0.14380
C1003       C  0.08485587  0.46035213  0.63137529    -0.15210
C1004       C  0.09006426  0.42727579  0.64066681    -0.30390
H1005       H  0.10244428  0.48218131  0.60351268     0.13810
H1006       H  0.07082218  0.40449354  0.66709034     0.14380
C1007       C  0.10120729  0.44326733  0.85526159    -0.15210
C1008       C  0.09150743  0.47271185  0.86884138    -0.30390
H1009       H  0.08573798  0.42408977  0.82506633     0.13810
H1010       H  0.10385601  0.48983972  0.90102395     0.14380
C1011       C  0.10218956  0.65044055  0.65718499    -0.15210
C1012       C  0.09206547  0.61061608  0.64674103    -0.30390
H1013       H  0.08554306  0.65595685  0.68517320     0.13810
H1014       H  0.10583013  0.60445419  0.61634761     0.14380
C1015       C  0.09115380  0.63436127  0.84224060    -0.15210
C1016       C  0.09314685  0.67171599  0.84590947    -0.30390
H1017       H  0.11369116  0.62881312  0.86048469     0.13810
H1018       H  0.06962267  0.67701715  0.82972037     0.14380
C1019       C  0.38929237  0.91654021  0.64710300    -0.15210
C1020       C  0.34962187  0.90823106  0.65501321    -0.30390
H1021       H  0.39457102  0.89548965  0.62534624     0.13810
H1022       H  0.34404095  0.92975734  0.67550037     0.14380
C1023       C  0.36171140  0.92770399  0.82861902    -0.15210
C1024       C  0.35353903  0.89405109  0.85339366    -0.30390
H1025       H  0.33701334  0.93530415  0.82356539     0.13810
H1026       H  0.37742681  0.88510409  0.85662719     0.14380
C1027       C  0.57410825  0.90744712  0.65842293    -0.15210
C1028       C  0.53779309  0.89853421  0.68049061    -0.30390
H1029       H  0.59817433  0.93994228  0.65279066     0.13810
H1030       H  0.51492041  0.86636262  0.68953055     0.14380
C1031       C  0.54668650  0.90836147  0.84727887    -0.15210
C1032       C  0.58016276  0.90283070  0.84701580    -0.30390
H1033       H  0.51807039  0.88641979  0.86560394     0.13810
H1034       H  0.60925090  0.92553061  0.82998717     0.14380
C1035       C  0.65188594  0.06805448  0.67187213    -0.15210
C1036       C  0.66307374  0.10151773  0.64510604    -0.30390
H1037       H  0.67555706  0.06150686  0.68526176     0.13810
H1038       H  0.63906554  0.10844506  0.63373714     0.14380
C1039       C  0.66766932  0.09702609  0.84074005    -0.15210
C1040       C  0.62906439  0.09195292  0.84828256    -0.30390
H1041       H  0.67114898  0.07517557  0.81835769     0.13810
H1042       H  0.62474349  0.11117670  0.87391158     0.14380
C1043       C  0.47789754  0.09694706  0.65929628    -0.15210
C1044       C  0.44363949  0.10044946  0.66794375    -0.30390
H1045       H  0.50146735  0.11785617  0.63437184     0.13810
H1046       H  0.41831377  0.07730917  0.68964179     0.14380
C1047       C  0.47465586  0.09930569  0.82928308    -0.15210
C1048       C  0.43895634  0.10096013  0.83411527    -0.30390
H1049       H  0.50284986  0.12183260  0.84722366     0.13810
H1050       H  0.40987225  0.07645588  0.81930477     0.14380
loop_ 
_geom_bond_atom_site_label_1 
_geom_bond_atom_site_label_2 
_geom_bond_distance 
_geom_bond_site_symmetry_2 
_ccdc_geom_bond_type 
O1            C9   1.253       .  A
O1          Co21   1.975       .  S
O2           C10   1.273       .  A
O2          Co22   1.998       .  S
O3           C11   1.291       .  A
O3          Co23   2.081   1_565  S
O4           C12   1.274       .  A
O4          Co24   2.044   1_565  S
O5           C11   1.269       .  A
O5          Co22   1.906       .  S
O6           C12   1.253       .  A
O6          Co21   1.944       .  S
O7           C10   1.272       .  A
O7          Co24   2.015   1_565  S
O8            C9   1.262       .  A
O8          Co23   2.033   1_565  S
C9          C498   1.483       .  S
C10         C503   1.489       .  S
C11         C494   1.473       .  S
C12         C506   1.475       .  S
O13          C26   1.277       .  A
O13         Co21   2.056   1_545  S
O14          C27   1.302       .  A
O14         Co22   2.128   1_545  S
O15          C28   1.263       .  A
O15         Co23   1.960       .  S
O16          C29   1.252       .  A
O16         Co24   1.953       .  S
O17          C29   1.269       .  A
O17         Co22   2.036   1_545  S
O18          C28   1.278       .  A
O18         Co21   2.039   1_545  S
O19          C26   1.250       .  A
O19         Co24   1.934       .  S
O20          C27   1.263       .  A
O20         Co23   1.894       .  S
Co21         O25   2.043   1_565  S
Co22         O25   2.023   1_565  S
Co23         O25   2.030       .  S
Co24         O25   2.057       .  S
C26         C515   1.483       .  S
C27         C518   1.485       .  S
C28         C522   1.470       .  S
C29         C510   1.480       .  S
O30          C38   1.266       .  A
O30         Co50   2.038   1_655  S
O31          C39   1.299       .  A
O31         Co51   2.083       .  S
O32          C40   1.272       .  A
O32         Co52   1.896   1_655  S
O33          C41   1.253       .  A
O33         Co53   1.974   1_655  S
O34          C40   1.297       .  A
O34         Co51   2.074       .  S
O35          C41   1.269       .  A
O35         Co50   2.041   1_655  S
O36          C39   1.272       .  A
O36         Co53   1.908   1_655  S
O37          C38   1.253       .  A
O37         Co52   1.979   1_655  S
C38         C467   1.483       .  S
C39         C471   1.477       .  S
C40         C462   1.465       .  S
C41         C474   1.483       .  S
O42          C55   1.258       .  A
O42         Co50   1.957       .  S
O43          C56   1.254       .  A
O43         Co51   2.009   1_455  S
O44          C57   1.273       .  A
O44         Co52   2.033       .  S
O45          C58   1.241       .  A
O45         Co53   1.951       .  S
O46          C58   1.255       .  A
O46         Co51   2.007   1_455  S
O47          C57   1.260       .  A
O47         Co50   1.963       .  S
O48          C55   1.274       .  A
O48         Co53   2.032       .  S
O49          C56   1.240       .  A
O49         Co52   1.954       .  S
Co50         O54   2.100       .  S
Co51         O54   2.234   1_655  S
Co52         O54   1.963       .  S
Co53         O54   1.971       .  S
C55         C483   1.473       .  S
C56         C487   1.473       .  S
C57         C490   1.475       .  S
C58         C478   1.471       .  S
O59          C67   1.300       .  A
O59         Co79   2.083       .  S
O60          C68   1.266       .  A
O60         Co80   2.031       .  S
O61          C69   1.253       .  A
O61         Co81   1.979       .  S
O62          C70   1.272       .  A
O62         Co82   1.899       .  S
O63          C69   1.268       .  A
O63         Co80   2.043       .  S
O64          C70   1.300       .  A
O64         Co79   2.090       .  S
O65          C68   1.252       .  A
O65         Co82   1.971       .  S
O66          C67   1.270       .  A
O66         Co81   1.894       .  S
C67         C434   1.468       .  S
C68         C439   1.473       .  S
C69         C430   1.485       .  S
C70         C443   1.478       .  S
O71          C84   1.255       .  A
O71         Co79   2.010       .  S
O72          C85   1.258       .  A
O72         Co80   1.958       .  S
O73          C86   1.240       .  A
O73         Co81   1.947       .  S
O74          C87   1.273       .  A
O74         Co82   2.032       .  S
O75          C87   1.259       .  A
O75         Co80   1.959       .  S
O76          C86   1.254       .  A
O76         Co79   2.007       .  S
O77          C84   1.241       .  A
O77         Co82   1.955       .  S
O78          C85   1.272       .  A
O78         Co81   2.037       .  S
Co79         O83   2.238       .  S
Co80         O83   2.098       .  S
Co81         O83   1.960       .  S
Co82         O83   1.959       .  S
C84         C450   1.474       .  S
C85         C454   1.472       .  S
C86         C459   1.468       .  S
C87         C447   1.472       .  S
C88         C466   1.492       .  S
C88         N106   1.339       .  A
C88         C125   1.480       .  S
N89         N106   1.320       .  A
N89         N111   1.318       .  A
N89        Co126   2.054       .  S
C90         N115   1.335       .  A
C90         C128   1.445       .  S
C90         H135   1.082       .  S
H91         C132   1.081       .  S
C92         N116   1.333       .  A
C92          C96   1.457       .  S
C92         H121   1.081       .  S
Co93        N111   2.138       .  S
Co93        N101   2.070       .  S
Co93        N133   2.097       .  S
Co93        N109   2.110       .  S
Co93       Cl662   2.443       .  S
N94         C132   1.344       .  A
N94         N626   1.325   1_554  A
N94         Co95   2.107       .  S
Co95         N98   2.092       .  S
Co95        N115   2.062       .  S
Co95        N102   2.136       .  S
Co95       Cl137   2.447       .  S
C96         C463   1.474       .  S
C96         N134   1.352       .  A
N97         N127   1.321       .  A
N97         N629   1.318   1_554  A
N97        Co130   2.058       .  S
N98         N116   1.316       .  A
N98         N134   1.327       .  A
N99         C653   1.351       .  A
N99         N109   1.327       .  A
H100        C125   1.081       .  S
N101        N122   1.321       .  A
N101        N619   1.324       .  A
N102        N120   1.316       .  A
N102        N107   1.335       .  A
C103        C438   1.489       .  S
C103        N107   1.365       .  A
C103        C131   1.445       .  S
N104        C119   1.337       .  A
N104        N622   1.319       .  A
N104       Co126   2.071       .  S
C105        N133   1.345       .  A
C105        C108   1.462       .  S
C105        H139   1.081       .  S
C108        C442   1.479       .  S
C108        N129   1.348       .  A
N109        N640   1.325       .  A
N110        C136   1.335       .  A
N110        N637   1.318       .  A
N110       Co126   2.049       .  S
N111        C125   1.356       .  A
N112        N140   1.318       .  A
N112        N635   1.316   1_554  A
N112       Co130   2.062       .  S
H113        C136   1.081       .  S
H114        C131   1.080       .  S
N115        N634   1.323   1_554  A
N116       Co130   2.055       .  S
N117        N129   1.324       .  A
N117        N133   1.318       .  A
N117       Co126   2.074       .  S
C118        N122   1.342       .  A
C118        C657   1.453       .  S
C118        C947   1.423       .  S
C119        C663   1.443       .  S
C119        H123   1.080       .  S
N120        C131   1.331       .  A
N120       Co130   2.046       .  S
C124        N140   1.339       .  A
C124        C661   1.449   1_554  S
C124        C428   1.406       .  S
Co126      Cl662   2.458       .  S
N127        C138   1.342       .  A
C128        N624   1.347   1_554  A
C128        C424   1.422       .  S
Co130      Cl137   2.446       .  S
C132        C643   1.458       .  S
C136        C649   1.443       .  S
Cl137      Co618   2.446   1_554  S
Cl137      Co651   2.454   1_554  S
C138        C644   1.448   1_554  S
C138        C426   1.414       .  S
C141        C514   1.477       .  S
C141        N159   1.346       .  A
C141        C178   1.461       .  S
N142        N159   1.327       .  A
N142        N164   1.319       .  A
N142       Co179   2.081       .  S
C143        N168   1.342       .  A
C143        C181   1.455       .  S
C143        H188   1.081       .  S
H144        C185   1.081       .  S
C145        N169   1.339       .  A
C145        C149   1.447       .  S
C145        H174   1.080       .  S
Co146       N164   2.103       .  S
Co146       N154   2.103       .  S
Co146       N186   2.136       .  S
Co146       N162   2.080       .  S
Co146      Cl715   2.445       .  S
N147        C185   1.337       .  A
N147        N679   1.322   1_554  A
N147       Co148   2.071       .  S
Co148       N151   2.124       .  S
Co148       N168   2.095       .  S
Co148       N155   2.104       .  S
Co148      Cl190   2.455   1_554  S
C149        C511   1.482       .  S
C149        N187   1.359       .  A
N150        N180   1.319       .  A
N150        N682   1.317   1_554  A
N150       Co183   2.058       .  S
N151        N169   1.319       .  A
N151        N187   1.333       .  A
N152        C706   1.345       .  A
N152        N162   1.323       .  A
H153        C178   1.081       .  S
N154        N175   1.326       .  A
N154        N672   1.323       .  A
N155        N173   1.316       .  A
N155        N160   1.331       .  A
C156        C470   1.487       .  S
C156        N160   1.356       .  A
C156        C184   1.458       .  S
N157        C172   1.335       .  A
N157        N675   1.316       .  A
N157       Co179   2.045       .  S
C158        N186   1.356       .  A
C158        C161   1.479       .  S
C158        H192   1.081       .  S
C161        C475   1.493       .  S
C161        N182   1.340       .  A
N162        N693   1.324       .  A
N163        C189   1.337       .  A
N163        N690   1.317       .  A
N163       Co179   2.075       .  S
N164        C178   1.346       .  A
N165        N193   1.321       .  A
N165        N688   1.319   1_554  A
N165       Co183   2.068       .  S
H166        C189   1.081       .  S
H167        C184   1.081       .  S
N168        N687   1.325   1_554  A
N169       Co183   2.070       .  S
N170        N182   1.321       .  A
N170        N186   1.319       .  A
N170       Co179   2.055       .  S
C171        N700   1.345       .  A
C171        C185   1.447   1_556  S
C171        C417   1.423       .  S
C172        C716   1.440       .  S
C172        H176   1.081       .  S
N173        C184   1.336       .  A
N173       Co183   2.068       .  S
N175        C696   1.349       .  A
C177        N193   1.344       .  A
C177        C714   1.450   1_554  S
C177        C427   1.414       .  S
Co179      Cl715   2.455       .  S
N180        C191   1.338   1_554  A
C181        N677   1.346   1_554  A
C181        C418   1.434   1_554  S
Co183      Cl190   2.443   1_554  S
C189        C702   1.450       .  S
Cl190      Co671   2.448       .  S
Cl190      Co704   2.453       .  S
C191        C697   1.446       .  S
C191        C420   1.409   1_556  S
C194        C499   1.492       .  S
C194        N212   1.347       .  A
C194        C231   1.472       .  S
N195        N212   1.322       .  A
N195        N217   1.319       .  A
N195       Co232   2.071       .  S
C196        N221   1.341       .  A
C196        C234   1.453       .  S
C196        H241   1.081       .  S
H197        C238   1.081       .  S
C198        N222   1.337       .  A
C198        C202   1.449       .  S
C198        H227   1.081       .  S
Co199       N217   2.118       .  S
Co199       N207   2.077       .  S
Co199       N239   2.098       .  S
Co199       N215   2.091       .  S
Co199      Cl768   2.447       .  S
N200        C238   1.345       .  A
N200        N732   1.324   1_554  A
N200       Co201   2.104       .  S
Co201       N204   2.111       .  S
Co201       N221   2.089       .  S
Co201       N208   2.131       .  S
Co201      Cl243   2.450       .  S
C202        C495   1.476       .  S
C202        N240   1.355       .  A
N203        N233   1.317       .  A
N203        N735   1.316   1_554  A
N203       Co236   2.044       .  S
N204        N222   1.319       .  A
N204        N240   1.330       .  A
N205        C759   1.346       .  A
N205        N215   1.324       .  A
H206        C231   1.081       .  S
N207        N228   1.322       .  A
N207        N725   1.324       .  A
N208        N226   1.316       .  A
N208        N213   1.335       .  A
C209        C486   1.480       .  S
C209        N213   1.363       .  A
C209        C237   1.440       .  S
N210        C225   1.342       .  A
N210        N728   1.319       .  A
N210       Co232   2.082       .  S
C211        N239   1.348       .  A
C211        C214   1.464       .  S
C211        H245   1.081       .  S
C214        C491   1.485       .  S
C214        N235   1.349       .  A
N215        N746   1.324       .  A
N216        C242   1.340       .  A
N216        N743   1.319       .  A
N216       Co232   2.073       .  S
N217        C231   1.353       .  A
N218        N246   1.319       .  A
N218        N741   1.315   1_554  A
N218       Co236   2.069       .  S
H219        C242   1.081       .  S
H220        C237   1.081       .  S
N221        N740   1.325   1_554  A
N222       Co236   2.064       .  S
N223        N235   1.321       .  A
N223        N239   1.319       .  A
N223       Co232   2.080       .  S
C224        N753   1.349   1_554  A
C224        C238   1.458       .  S
C224        C411   1.446       .  S
C225        C769   1.458       .  S
C225        H229   1.081       .  S
N226        C237   1.328       .  A
N226       Co236   2.034       .  S
N228        C749   1.344       .  A
C230        N246   1.343       .  A
C230        C767   1.452   1_554  S
C230        C412   1.410       .  S
Co232      Cl768   2.454       .  S
N233        C244   1.336       .  A
C234        N730   1.350   1_554  A
C234        C423   1.441       .  S
Co236      Cl243   2.445       .  S
C242        C755   1.452       .  S
Cl243      Co724   2.446   1_554  S
Cl243      Co757   2.451   1_554  S
C244        C750   1.449   1_554  S
C244        C414   1.410       .  S
C247        N790   1.339   1_554  A
C247        C284   1.453       .  S
C247        C415   1.409       .  S
N248        N265   1.318       .  A
N248        N795   1.320       .  A
N248       Co285   2.050       .  S
C249        N274   1.348       .  A
C249        C287   1.463       .  S
C249        H294   1.081       .  S
H250        C291   1.081       .  S
C251        N275   1.340       .  A
C251        C255   1.450       .  S
C251        H280   1.081       .  S
Co252       N270   2.073       .  S
Co252       N260   2.065       .  S
Co252       N292   2.074       .  S
Co252       N268   2.078       .  S
Co252      Cl296   2.455       .  S
N253        C291   1.351       .  A
N253        N260   1.320       .  A
N253       Co254   2.125       .  S
Co254       N257   2.080       .  S
Co254       N274   2.096       .  S
Co254       N261   2.095       .  S
Co254      Cl296   2.446       .  S
C255        N818   1.348       .  A
C255        C941   1.433       .  S
N256        N263   1.317       .  A
N256        N286   1.328       .  A
N256       Co289   2.085       .  S
N257        N293   1.323       .  A
N257        N800   1.323   1_554  A
N258        C287   1.349       .  A
N258        N268   1.320       .  A
H259        C284   1.081       .  S
N260        N281   1.324       .  A
N261        N266   1.324       .  A
N261        N804   1.323   1_554  A
C262        N266   1.347       .  A
C262        C815   1.445   1_554  S
C262        C425   1.422       .  S
N263        C278   1.339       .  A
N263       Co285   2.084       .  S
C264        N292   1.341       .  A
C264        C267   1.455       .  S
C264        H298   1.081       .  S
N265        C772   1.338       .  A
C267        N813   1.340   1_554  A
C267        C408   1.416       .  S
N268        N274   1.319       .  A
N269        C295   1.332       .  A
N269        N271   1.317       .  A
N269       Co285   2.048       .  S
N270        C284   1.339       .  A
N270        N773   1.317   1_554  A
N271        N299   1.333       .  A
N271       Co289   2.124       .  S
H272        C295   1.081       .  S
H273        C290   1.081       .  S
N275        N782   1.323       .  A
N275       Co289   2.086       .  S
N276        N288   1.320       .  A
N276        N817   1.318       .  A
N276       Co285   2.072       .  S
C277        C502   1.487       .  S
C277        N281   1.344       .  A
C277        C291   1.472       .  S
C278        C297   1.465       .  S
C278        H282   1.081       .  S
N279        C290   1.336       .  A
N279        N786   1.323       .  A
N279       Co289   2.064       .  S
C283        C451   1.479       .  S
C283        N299   1.361       .  A
C283        C295   1.444       .  S
Co285      Cl821   2.439       .  S
N286        C297   1.350       .  A
C287        C446   1.484       .  S
N288        C792   1.342       .  A
Co289      Cl821   2.459       .  S
C290        C787   1.445       .  S
N292        N801   1.318   1_554  A
N293        C780   1.345   1_554  A
Cl296      Co810   2.437   1_554  S
Cl296      Co814   2.454   1_554  S
C297        C507   1.485       .  S
C300        C482   1.483       .  S
C300        N318   1.351       .  A
C300        C337   1.459       .  S
N301        N318   1.322       .  A
N301        N323   1.318       .  A
N301       Co338   2.087       .  S
C302        N327   1.338       .  A
C302        C340   1.449   1_554  S
C302        H347   1.081       .  S
H303        C344   1.081       .  S
C304        N328   1.333       .  A
C304        C308   1.445       .  S
C304        H333   1.081       .  S
Co305       N323   2.086       .  S
Co305       N313   2.086       .  S
Co305       N345   2.109       .  S
Co305       N321   2.071       .  S
Co305      Cl874   2.452       .  S
N306        C344   1.339       .  A
N306        N838   1.323   1_554  A
N306       Co307   2.077       .  S
Co307       N310   2.118       .  S
Co307       N327   2.083       .  S
Co307       N314   2.105       .  S
Co307      Cl349   2.456       .  S
C308        C479   1.476       .  S
C308        N346   1.358       .  A
N309        N339   1.321       .  A
N309        N841   1.317   1_554  A
N309       Co342   2.065       .  S
N310        N328   1.318       .  A
N310        N346   1.331       .  A
N311        C865   1.341       .  A
N311        N321   1.321       .  A
H312        C337   1.081       .  S
N313        N334   1.324       .  A
N313        N831   1.322       .  A
N314        N332   1.316       .  A
N314        N319   1.332       .  A
C315        C455   1.490       .  S
C315        N319   1.357       .  A
C315        C343   1.459       .  S
N316        C331   1.337       .  A
N316        N834   1.317       .  A
N316       Co338   2.054       .  S
C317        N345   1.349       .  A
C317        C320   1.468       .  S
C317        H351   1.081       .  S
C320        C458   1.471       .  S
C320        N341   1.340       .  A
N321        N852   1.324       .  A
N322        C348   1.341       .  A
N322        N849   1.319       .  A
N322       Co338   2.086       .  S
N323        C337   1.346       .  A
N324        N352   1.319       .  A
N324        N847   1.319   1_554  A
N324       Co342   2.062       .  S
H325        C348   1.081       .  S
H326        C343   1.080       .  S
N327        N846   1.324   1_554  A
N328       Co342   2.052       .  S
N329        N341   1.319       .  A
N329        N345   1.318       .  A
N329       Co338   2.048       .  S
C330        N859   1.348   1_554  A
C330        C344   1.450       .  S
C330        C419   1.434   1_554  S
C331        C875   1.447       .  S
C331        H335   1.081       .  S
N332        C343   1.331       .  A
N332       Co342   2.064       .  S
N334        C855   1.346       .  A
C336        N352   1.340       .  A
C336        C873   1.456   1_554  S
C336        C409   1.417       .  S
Co338      Cl874   2.445       .  S
N339        C350   1.341       .  A
C340        N836   1.350       .  A
C340        C407   1.435       .  S
Co342      Cl349   2.440       .  S
C348        C861   1.455       .  S
Cl349      Co830   2.449   1_554  S
Cl349      Co863   2.457   1_554  S
C350        C856   1.442   1_554  S
C350        C413   1.411       .  S
C353        N896   1.341   1_554  A
C353        C390   1.451       .  S
C353        C421   1.408       .  S
N354        N371   1.319       .  A
N354        N901   1.316       .  A
N354       Co391   2.064       .  S
C355        N380   1.353       .  A
C355        C393   1.474       .  S
C355        H400   1.081       .  S
H356        C397   1.081       .  S
C357        N381   1.338       .  A
C357        C886   1.450       .  S
C357        H386   1.082       .  S
Co358       N376   2.068       .  S
Co358       N366   2.064       .  S
Co358       N398   2.061       .  S
Co358       N374   2.074       .  S
Co358      Cl402   2.462       .  S
N359        C397   1.348       .  A
N359        N366   1.318       .  A
N359       Co360   2.115       .  S
Co360       N363   2.107       .  S
Co360       N380   2.131       .  S
Co360       N367   2.095       .  S
Co360      Cl402   2.445       .  S
C361        N399   1.349       .  A
C361        C882   1.458   1_554  S
C361        C410   1.446       .  S
N362        N369   1.317       .  A
N362        N392   1.333       .  A
N362       Co395   2.129       .  S
N363        N399   1.327       .  A
N363        N906   1.326   1_554  A
N364        C393   1.343       .  A
N364        N374   1.324       .  A
H365        C390   1.081       .  S
N366        N387   1.325       .  A
N367        N372   1.327       .  A
N367        N910   1.322   1_554  A
C368        N372   1.350   1_556  A
C368        C921   1.449       .  S
C368        C406   1.435       .  S
N369        C384   1.332       .  A
N369       Co391   2.048       .  S
C370        N398   1.339       .  A
C370        C373   1.446       .  S
C370        H404   1.081       .  S
N371        C878   1.341       .  A
C373        N919   1.337   1_554  A
C373        C429   1.406       .  S
N374        N380   1.321       .  A
N375        C401   1.331       .  A
N375        N377   1.317       .  A
N375       Co391   2.054       .  S
N376        C390   1.337       .  A
N376        N879   1.318   1_554  A
N377        N405   1.330       .  A
N377       Co395   2.107       .  S
H378        C401   1.080       .  S
H379        C396   1.081       .  S
N381        N888   1.324       .  A
N381       Co395   2.079       .  S
N382        N394   1.321       .  A
N382        N923   1.316       .  A
N382       Co391   2.065       .  S
C383        C519   1.482       .  S
C383        N387   1.345       .  A
C383        C397   1.466       .  S
C384        C403   1.447       .  S
C384        H388   1.080       .  S
N385        C396   1.344       .  A
N385        N892   1.324       .  A
N385       Co395   2.101       .  S
C389        C435   1.479       .  S
C389        N405   1.356       .  A
C389        C401   1.454       .  S
Co391      Cl927   2.440       .  S
N392        C403   1.362       .  A
C393        C431   1.493       .  S
N394        C898   1.344       .  A
Co395      Cl927   2.451       .  S
C396        C893   1.459       .  S
N398        N907   1.316   1_554  A
Cl402      Co916   2.437   1_554  S
Cl402      Co920   2.457   1_554  S
C403        C523   1.485       .  S
C406        C407   1.205       .  T
C408        C409   1.194       .  T
C410        C411   1.212   1_545  T
C412        C413   1.190       .  T
C414        C415   1.190       .  T
C416        C780   1.423       .  S
C416        C417   1.198   1_565  T
C418        C419   1.204   1_655  T
C420        C421   1.189       .  T
C422        C643   1.441       .  S
C422        C423   1.209   1_655  T
C424        C425   1.198       .  T
C426        C427   1.192       .  T
C428        C429   1.187       .  T
C430        C431   1.356       .  D
C430        H432   1.086       .  S
C431        H433   1.086       .  S
C434        C435   1.347       .  D
C434        H436   1.084       .  S
C435        H437   1.086       .  S
C438        C439   1.357       .  D
C438        H440   1.086       .  S
C439        H441   1.083       .  S
C442        C443   1.346       .  D
C442        H444   1.086       .  S
C443        H445   1.087       .  S
C446        C447   1.343       .  D
C446        H448   1.086       .  S
C447        H449   1.087       .  S
C450        C451   1.353       .  D
C450        H452   1.086       .  S
C451        H453   1.086       .  S
C454        C455   1.345       .  D
C454        H456   1.084       .  S
C455        H457   1.086       .  S
C458        C459   1.349       .  D
C458        H460   1.086       .  S
C459        H461   1.087       .  S
C462        C463   1.342       .  D
C462        H464   1.084       .  S
C463        H465   1.086       .  S
C466        C467   1.359       .  D
C466        H468   1.086       .  S
C467        H469   1.086       .  S
C470        C471   1.348       .  D
C470        H472   1.086       .  S
C471        H473   1.084       .  S
C474        C475   1.359       .  D
C474        H476   1.086       .  S
C475        H477   1.086       .  S
C478        C479   1.351       .  D
C478        H480   1.086       .  S
C479        H481   1.086       .  S
C482        C483   1.341       .  D
C482        H484   1.086       .  S
C483        H485   1.088       .  S
C486        C487   1.355       .  D
C486        H488   1.086       .  S
C487        H489   1.086       .  S
C490        C491   1.344       .  D
C490        H492   1.087       .  S
C491        H493   1.086       .  S
C494        C495   1.349       .  D
C494        H496   1.087       .  S
C495        H497   1.086       .  S
C498        C499   1.350       .  D
C498        H500   1.087       .  S
C499        H501   1.086       .  S
C502        C503   1.357       .  D
C502        H504   1.086       .  S
C503        H505   1.086       .  S
C506        C507   1.340       .  D
C506        H508   1.086       .  S
C507        H509   1.086       .  S
C510        C511   1.356       .  D
C510        H512   1.086       .  S
C511        H513   1.086       .  S
C514        C515   1.355       .  D
C514        H516   1.087       .  S
C515        H517   1.086       .  S
C518        C519   1.354       .  D
C518        H520   1.086       .  S
C519        H521   1.086       .  S
C522        C523   1.354       .  D
C522        H524   1.083       .  S
C523        H525   1.086       .  S
O526        C534   1.304       .  A
O526       Co546   2.109       .  S
O527        C535   1.260       .  A
O527       Co547   2.013   1_565  S
O528        C536   1.252       .  A
O528       Co548   1.979       .  S
O529        C537   1.269       .  A
O529       Co549   1.878       .  S
O530        C536   1.258       .  A
O530       Co547   2.001   1_565  S
O531        C537   1.303       .  A
O531       Co546   2.097       .  S
O532        C535   1.259       .  A
O532       Co549   2.005       .  S
O533        C534   1.253       .  A
O533       Co548   1.874       .  S
C534       C1023   1.473       .  S
C535       C1028   1.486       .  S
C536       C1019   1.485       .  S
C537       C1031   1.472       .  S
O538        C551   1.256       .  A
O538       Co546   2.020   1_545  S
O539        C552   1.274       .  A
O539       Co547   2.019       .  S
O540        C553   1.268       .  A
O540       Co548   1.986   1_545  S
O541        C554   1.269       .  A
O541       Co549   2.007   1_545  S
O542        C554   1.276       .  A
O542       Co547   1.983       .  S
O543        C553   1.263       .  A
O543       Co546   2.020   1_545  S
O544        C551   1.241       .  A
O544       Co549   1.958   1_545  S
O545        C552   1.286       .  A
O545       Co548   2.017   1_545  S
Co546       O550   2.245   1_565  S
Co547       O550   2.104       .  S
Co548       O550   1.944   1_565  S
Co549       O550   1.933   1_565  S
C551       C1040   1.484       .  S
C552       C1043   1.480       .  S
C553       C1047   1.474       .  S
C554       C1035   1.477       .  S
O555        C563   1.269       .  A
O555       Co575   1.914       .  S
O556        C564   1.256       .  A
O556       Co576   1.955       .  S
O557        C565   1.265       .  A
O557       Co577   2.039   1_655  S
O558        C566   1.275       .  A
O558       Co578   2.028   1_655  S
O559        C565   1.250       .  A
O559       Co576   1.967       .  S
O560        C566   1.268       .  A
O560       Co575   1.978       .  S
O561        C564   1.267       .  A
O561       Co578   2.021   1_655  S
O562        C563   1.290       .  A
O562       Co577   2.080   1_655  S
C563        C992   1.477       .  S
C564        C996   1.463       .  S
C565        C987   1.484       .  S
C566        C999   1.483       .  S
O567        C580   1.272       .  A
O567       Co575   2.049   1_455  S
O568        C581   1.283       .  A
O568       Co576   2.054   1_455  S
O569        C582   1.268       .  A
O569       Co577   1.896       .  S
O570        C583   1.255       .  A
O570       Co578   1.941       .  S
O571        C583   1.273       .  A
O571       Co576   2.036   1_455  S
O572        C582   1.297       .  A
O572       Co575   2.098   1_455  S
O573        C580   1.251       .  A
O573       Co578   1.951       .  S
O574        C581   1.264       .  A
O574       Co577   1.957       .  S
Co575       O579   2.017   1_655  S
Co576       O579   2.025   1_655  S
Co577       O579   2.045       .  S
Co578       O579   2.061       .  S
C580       C1008   1.488       .  S
C581       C1012   1.485       .  S
C582       C1015   1.470       .  S
C583       C1003   1.469       .  S
O584        C592   1.268       .  A
O584       Co604   2.034       .  S
O585        C593   1.281       .  A
O585       Co605   2.050       .  S
O586        C594   1.252       .  A
O586       Co606   1.936       .  S
O587        C595   1.266       .  A
O587       Co607   1.896       .  S
O588        C594   1.275       .  A
O588       Co605   2.045       .  S
O589        C595   1.302       .  A
O589       Co604   2.121       .  S
O590        C593   1.263       .  A
O590       Co607   1.959       .  S
O591        C592   1.250       .  A
O591       Co606   1.950       .  S
C592        C959   1.479       .  S
C593        C964   1.481       .  S
C594        C955   1.472       .  S
C595        C968   1.485       .  S
O596        C609   1.267       .  A
O596       Co604   1.906       .  S
O597        C610   1.255       .  A
O597       Co605   1.954       .  S
O598        C611   1.274       .  A
O598       Co606   2.022       .  S
O599        C612   1.264       .  A
O599       Co607   2.034       .  S
O600        C612   1.250       .  A
O600       Co605   1.966       .  S
O601        C611   1.271       .  A
O601       Co604   1.991       .  S
O602        C609   1.290       .  A
O602       Co607   2.081       .  S
O603        C610   1.271       .  A
O603       Co606   2.038       .  S
Co604       O608   2.022       .  S
Co605       O608   2.034       .  S
Co606       O608   2.060       .  S
Co607       O608   2.043       .  S
C609        C975   1.472       .  S
C610        C979   1.476       .  S
C611        C984   1.489       .  S
C612        C972   1.480       .  S
C613        C991   1.480       .  S
C613        N631   1.341       .  A
C613        C650   1.471       .  S
N614        N631   1.321       .  A
N614        N636   1.319       .  A
N614       Co651   2.060       .  S
C615        N640   1.336       .  A
C615        C653   1.445       .  S
C615        H660   1.081       .  S
H616        C657   1.081       .  S
C617        N641   1.341       .  A
C617        C621   1.466       .  S
C617        H646   1.080       .  S
Co618       N636   2.116       .  S
Co618       N626   2.090       .  S
Co618       N658   2.104       .  S
Co618       N634   2.093       .  S
N619        C657   1.340       .  A
N619       Co620   2.090       .  S
Co620       N623   2.097       .  S
Co620       N640   2.070       .  S
Co620       N627   2.131       .  S
Co620      Cl662   2.452       .  S
C621        C988   1.494       .  S
C621        N659   1.353       .  A
N622        N652   1.321       .  A
N622       Co655   2.060       .  S
N623        N641   1.317       .  A
N623        N659   1.330       .  A
N624        N634   1.324       .  A
H625        C650   1.081       .  S
N626        N647   1.325       .  A
N627        N645   1.317       .  A
N627        N632   1.334       .  A
C628        C963   1.488       .  S
C628        N632   1.362       .  A
C628        C656   1.448       .  S
N629        C644   1.337       .  A
N629       Co651   2.074       .  S
C630        N658   1.345       .  A
C630        C633   1.463       .  S
C630        H664   1.081       .  S
C633        C967   1.482       .  S
C633        N654   1.348       .  A
N635        C661   1.338       .  A
N635       Co651   2.055       .  S
N636        C650   1.351       .  A
N637        N665   1.321       .  A
N637       Co655   2.082       .  S
H638        C661   1.081       .  S
H639        C656   1.081       .  S
N641       Co655   2.092       .  S
N642        N654   1.326       .  A
N642        N658   1.319       .  A
N642       Co651   2.080       .  S
C643        N647   1.347   1_554  A
C644        H648   1.081       .  S
N645        C656   1.337       .  A
N645       Co655   2.059       .  S
C649        N665   1.344       .  A
C649        C953   1.411       .  S
N652        C663   1.341       .  A
C653        C949   1.431       .  S
Co655      Cl662   2.447       .  S
C663        C951   1.410       .  S
C666       C1039   1.481       .  S
C666        N684   1.346       .  A
C666        C703   1.465       .  S
N667        N684   1.326       .  A
N667        N689   1.320       .  A
N667       Co704   2.079       .  S
C668        N693   1.338       .  A
C668        C706   1.451       .  S
C668        H713   1.081       .  S
H669        C710   1.081       .  S
C670        N694   1.326       .  A
C670        C674   1.435       .  S
C670        H699   1.081       .  S
Co671       N689   2.109       .  S
Co671       N679   2.082       .  S
Co671       N711   2.104       .  S
Co671       N687   2.089       .  S
N672        C710   1.338       .  A
N672       Co673   2.072       .  S
Co673       N676   2.122       .  S
Co673       N693   2.085       .  S
Co673       N680   2.102       .  S
Co673      Cl715   2.448       .  S
C674       C1036   1.464       .  S
C674        N712   1.361       .  A
N675        N705   1.320       .  A
N675       Co708   2.066       .  S
N676        N694   1.317       .  A
N676        N712   1.333       .  A
N677        N687   1.324       .  A
H678        C703   1.081       .  S
N679        N700   1.324       .  A
N680        N698   1.317       .  A
N680        N685   1.330       .  A
C681        C995   1.475       .  S
C681        N685   1.354       .  A
C681        C709   1.453       .  S
N682        C697   1.338       .  A
N682       Co704   2.061       .  S
C683        N711   1.348       .  A
C683        C686   1.466       .  S
C683        H717   1.081       .  S
C686       C1000   1.483       .  S
C686        N707   1.347       .  A
N688        C714   1.336       .  A
N688       Co704   2.072       .  S
N689        C703   1.347       .  A
N690        N718   1.319       .  A
N690       Co708   2.055       .  S
H691        C714   1.081       .  S
H692        C709   1.081       .  S
N694       Co708   2.036       .  S
N695        N707   1.324       .  A
N695        N711   1.318       .  A
N695       Co704   2.073       .  S
C696        C710   1.449       .  S
C696        C942   1.433       .  S
C697        H701   1.081       .  S
N698        C709   1.328       .  A
N698       Co708   2.047       .  S
C702        N718   1.342       .  A
C702        C952   1.409       .  S
N705        C716   1.339       .  A
C706        C943   1.425       .  S
Co708      Cl715   2.438       .  S
C716        C945   1.404       .  S
C719       C1024   1.470       .  S
C719        N737   1.333       .  A
C719        C756   1.476       .  S
N720        N737   1.317       .  A
N720        N742   1.320       .  A
N720       Co757   2.044       .  S
C721        N746   1.337       .  A
C721        C759   1.447       .  S
C721        H766   1.081       .  S
H722        C763   1.081       .  S
C723        N747   1.343       .  A
C723        C727   1.459       .  S
C723        H752   1.080       .  S
Co724       N742   2.124       .  S
Co724       N732   2.094       .  S
Co724       N764   2.101       .  S
Co724       N740   2.107       .  S
N725        C763   1.340       .  A
N725       Co726   2.089       .  S
Co726       N729   2.095       .  S
Co726       N746   2.069       .  S
Co726       N733   2.123       .  S
Co726      Cl768   2.455       .  S
C727       C1020   1.486       .  S
C727        N765   1.353       .  A
N728        N758   1.317       .  A
N728       Co761   2.057       .  S
N729        N747   1.317       .  A
N729        N765   1.329       .  A
N730        N740   1.327       .  A
H731        C756   1.081       .  S
N732        N753   1.327       .  A
N733        N751   1.318       .  A
N733        N738   1.332       .  A
C734       C1011   1.488       .  S
C734        N738   1.359       .  A
C734        C762   1.452       .  S
N735        C750   1.340       .  A
N735       Co757   2.072       .  S
C736        N764   1.346       .  A
C736        C739   1.463       .  S
C736        H770   1.081       .  S
C739       C1016   1.473       .  S
C739        N760   1.344       .  A
N741        C767   1.336       .  A
N741       Co757   2.056       .  S
N742        C756   1.352       .  A
N743        N771   1.320       .  A
N743       Co761   2.069       .  S
H744        C767   1.081       .  S
H745        C762   1.081       .  S
N747       Co761   2.085       .  S
N748        N760   1.320       .  A
N748        N764   1.318       .  A
N748       Co757   2.058       .  S
C749        C763   1.452       .  S
C749        C936   1.425       .  S
C750        H754   1.081       .  S
N751        C762   1.341       .  A
N751       Co761   2.071       .  S
C755        N771   1.342       .  A
C755        C937   1.419       .  S
N758        C769   1.338       .  A
C759        C948   1.423       .  S
Co761      Cl768   2.444       .  S
C769        C939   1.417       .  S
C772        C809   1.457       .  S
C772        C940   1.418       .  S
N773        N790   1.317       .  A
N773       Co810   2.050       .  S
C774        N799   1.348       .  A
C774        C812   1.463       .  S
C774        H819   1.081       .  S
H775        C816   1.081       .  S
C776        N800   1.338       .  A
C776        C780   1.449       .  S
C776        H805   1.081       .  S
Co777       N795   2.090       .  S
Co777       N785   2.062       .  S
Co777       N817   2.069       .  S
Co777       N793   2.089       .  S
Co777      Cl821   2.462       .  S
N778        C816   1.352       .  A
N778        N785   1.320       .  A
N778       Co779   2.134       .  S
Co779       N782   2.091       .  S
Co779       N799   2.103       .  S
Co779       N786   2.108       .  S
Co779      Cl821   2.445       .  S
N781        N788   1.317       .  A
N781        N811   1.325       .  A
N781       Co814   2.086       .  S
N782        N818   1.325       .  A
N783        C812   1.352       .  A
N783        N793   1.324       .  A
H784        C809   1.081       .  S
N785        N806   1.324       .  A
N786        N791   1.327       .  A
C787        N791   1.351       .  A
C787        C950   1.431       .  S
N788        C803   1.338       .  A
N788       Co810   2.067       .  S
C789        N817   1.340       .  A
C789        C792   1.454       .  S
C789        H823   1.081       .  S
C792        C933   1.419       .  S
N793        N799   1.320       .  A
N794        C820   1.333       .  A
N794        N796   1.317       .  A
N794       Co810   2.053       .  S
N795        C809   1.342       .  A
N796        N824   1.332       .  A
N796       Co814   2.115       .  S
H797        C820   1.081       .  S
H798        C815   1.081       .  S
N800       Co814   2.081       .  S
N801        N813   1.318       .  A
N801       Co810   2.062       .  S
C802       C1027   1.487       .  S
C802        N806   1.343       .  A
C802        C816   1.476       .  S
C803        C822   1.456       .  S
C803        H807   1.081       .  S
N804        C815   1.335       .  A
N804       Co814   2.061       .  S
C808        C976   1.478       .  S
C808        N824   1.359       .  A
C808        C820   1.446       .  S
N811        C822   1.350       .  A
C812        C971   1.489       .  S
C822       C1032   1.470       .  S
C825       C1007   1.487       .  S
C825        N843   1.346       .  A
C825        C862   1.468       .  S
N826        N843   1.327       .  A
N826        N848   1.321       .  A
N826       Co863   2.086       .  S
C827        N852   1.344       .  A
C827        C865   1.460       .  S
C827        H872   1.081       .  S
H828        C869   1.081       .  S
C829        N853   1.332       .  A
C829        C833   1.443       .  S
C829        H858   1.080       .  S
Co830       N848   2.119       .  S
Co830       N838   2.096       .  S
Co830       N870   2.116       .  S
Co830       N846   2.103       .  S
N831        C869   1.337       .  A
N831       Co832   2.071       .  S
Co832       N835   2.127       .  S
Co832       N852   2.103       .  S
Co832       N839   2.093       .  S
Co832      Cl874   2.452       .  S
C833       C1004   1.476       .  S
C833        N871   1.360       .  A
N834        N864   1.323       .  A
N834       Co867   2.083       .  S
N835        N853   1.319       .  A
N835        N871   1.332       .  A
N836        N846   1.327       .  A
H837        C862   1.081       .  S
N838        N859   1.326       .  A
N839        N857   1.318       .  A
N839        N844   1.329       .  A
C840        C980   1.486       .  S
C840        N844   1.353       .  A
C840        C868   1.462       .  S
N841        C856   1.336       .  A
N841       Co863   2.057       .  S
C842        N870   1.349       .  A
C842        C845   1.469       .  S
C842        H876   1.081       .  S
C845        C983   1.488       .  S
C845        N866   1.347       .  A
N847        C873   1.340       .  A
N847       Co863   2.080       .  S
N848        C862   1.350       .  A
N849        N877   1.320       .  A
N849       Co867   2.058       .  S
H850        C873   1.081       .  S
H851        C868   1.081       .  S
N853       Co867   2.047       .  S
N854        N866   1.325       .  A
N854        N870   1.319       .  A
N854       Co863   2.073       .  S
C855        C869   1.449       .  S
C855        C944   1.425       .  S
C856        H860   1.081       .  S
N857        C868   1.338       .  A
N857       Co867   2.082       .  S
C861        N877   1.342       .  A
C861        C934   1.419       .  S
N864        C875   1.346       .  A
C865        C932   1.431       .  S
Co867      Cl874   2.444       .  S
C875        C938   1.419       .  S
C878        C915   1.443       .  S
C878        C946   1.403       .  S
N879        N896   1.318       .  A
N879       Co916   2.061       .  S
C880        N905   1.349       .  A
C880        C918   1.466       .  S
C880        H925   1.081       .  S
H881        C922   1.081       .  S
C882        N906   1.344       .  A
C882        H911   1.081       .  S
Co883       N901   2.052       .  S
Co883       N891   2.074       .  S
Co883       N923   2.062       .  S
Co883       N899   2.059       .  S
Co883      Cl927   2.449       .  S
N884        C922   1.347       .  A
N884        N891   1.318       .  A
N884       Co885   2.099       .  S
Co885       N888   2.083       .  S
Co885       N905   2.110       .  S
Co885       N892   2.072       .  S
Co885      Cl927   2.448       .  S
C886        N924   1.345       .  A
C886        C935   1.425       .  S
N887        N894   1.316       .  A
N887        N917   1.332       .  A
N887       Co920   2.115       .  S
N888        N924   1.323       .  A
N889        C918   1.341       .  A
N889        N899   1.322       .  A
H890        C915   1.080       .  S
N891        N912   1.324       .  A
N892        N897   1.321       .  A
C893        N897   1.341       .  A
C893        C931   1.431       .  S
N894        C909   1.335       .  A
N894       Co916   2.057       .  S
C895        N923   1.335       .  A
C895        C898   1.446       .  S
C895        H929   1.081       .  S
C898        C954   1.411       .  S
N899        N905   1.318       .  A
N900        C926   1.338       .  A
N900        N902   1.320       .  A
N900       Co916   2.067       .  S
N901        C915   1.335       .  A
N902        N930   1.332       .  A
N902       Co920   2.123       .  S
H903        C926   1.080       .  S
H904        C921   1.081       .  S
N906       Co920   2.103       .  S
N907        N919   1.318       .  A
N907       Co916   2.054       .  S
C908       C1044   1.478       .  S
C908        N912   1.345       .  A
C908        C922   1.463       .  S
C909        C928   1.453       .  S
C909        H913   1.081       .  S
N910        C921   1.339       .  A
N910       Co920   2.078       .  S
C914        C960   1.480       .  S
C914        N930   1.358       .  A
C914        C926   1.446       .  S
N917        C928   1.360       .  A
C918        C956   1.474       .  S
C928       C1048   1.488       .  S
C931        C932   1.203       .  T
C933        C934   1.196       .  T
C935        C936   1.199   1_545  T
C937        C938   1.196       .  T
C939        C940   1.195       .  T
C941        C942   1.204   1_565  T
C943        C944   1.199   1_655  T
C945        C946   1.185       .  T
C947        C948   1.198   1_655  T
C949        C950   1.203       .  T
C951        C952   1.189       .  T
C953        C954   1.191       .  T
C955        C956   1.352       .  D
C955        H957   1.086       .  S
C956        H958   1.087       .  S
C959        C960   1.355       .  D
C959        H961   1.086       .  S
C960        H962   1.086       .  S
C963        C964   1.356       .  D
C963        H965   1.086       .  S
C964        H966   1.085       .  S
C967        C968   1.351       .  D
C967        H969   1.086       .  S
C968        H970   1.086       .  S
C971        C972   1.344       .  D
C971        H973   1.086       .  S
C972        H974   1.087       .  S
C975        C976   1.351       .  D
C975        H977   1.086       .  S
C976        H978   1.086       .  S
C979        C980   1.343       .  D
C979        H981   1.086       .  S
C980        H982   1.086       .  S
C983        C984   1.354       .  D
C983        H985   1.086       .  S
C984        H986   1.086       .  S
C987        C988   1.345       .  D
C987        H989   1.085       .  S
C988        H990   1.086       .  S
C991        C992   1.352       .  D
C991        H993   1.086       .  S
C992        H994   1.087       .  S
C995        C996   1.342       .  D
C995        H997   1.086       .  S
C996        H998   1.086       .  S
C999       C1000   1.350       .  D
C999       H1001   1.087       .  S
C1000      H1002   1.086       .  S
C1003      C1004   1.353       .  D
C1003      H1005   1.086       .  S
C1004      H1006   1.086       .  S
C1007      C1008   1.358       .  D
C1007      H1009   1.087       .  S
C1008      H1010   1.086       .  S
C1011      C1012   1.356       .  D
C1011      H1013   1.086       .  S
C1012      H1014   1.086       .  S
C1015      C1016   1.346       .  D
C1015      H1017   1.087       .  S
C1016      H1018   1.086       .  S
C1019      C1020   1.350       .  D
C1019      H1021   1.086       .  S
C1020      H1022   1.086       .  S
C1023      C1024   1.327       .  D
C1023      H1025   1.087       .  S
C1024      H1026   1.087       .  S
C1027      C1028   1.357       .  D
C1027      H1029   1.086       .  S
C1028      H1030   1.086       .  S
C1031      C1032   1.345       .  D
C1031      H1033   1.086       .  S
C1032      H1034   1.086       .  S
C1035      C1036   1.331       .  D
C1035      H1037   1.087       .  S
C1036      H1038   1.088       .  S
C1039      C1040   1.352       .  D
C1039      H1041   1.086       .  S
C1040      H1042   1.086       .  S
C1043      C1044   1.351       .  D
C1043      H1045   1.087       .  S
C1044      H1046   1.086       .  S
C1047      C1048   1.351       .  D
C1047      H1049   1.084       .  S
C1048      H1050   1.086       .  S
