geometry optimzed in LAMMPS
_audit_creation_date              2020-11-30 
_audit_creation_method            'lammps2cif' 
_symmetry_space_group_name_H-M    'P1' 
_symmetry_Int_Tables_number       1 
_symmetry_cell_setting            triclinic 
loop_ 
_symmetry_equiv_pos_as_xyz 
  x,y,z 
_cell_length_a                    29.71291079 
_cell_length_b                    29.67579374893589 
_cell_length_c                    29.661236465606613 
_cell_angle_alpha                 89.83818028441334 
_cell_angle_beta                  90.06341972103361 
_cell_angle_gamma                 90.0139448889089 
loop_ 
_atom_site_label 
_atom_site_type_symbol 
_atom_site_fract_x 
_atom_site_fract_y 
_atom_site_fract_z 
_atom_site_charge 
O1          O  0.07784926  0.99291258  0.52145775    -0.87900
C2          C  0.98374080  0.89495813  0.50019724     0.88200
Mg3        Mg  0.06899839  0.04430084  0.57279510     1.58100
O4          O  0.98767813  0.97965038  0.41700209    -0.87600
O5          O  0.08988742  0.98557009  0.44909138    -0.74900
C6          C  0.86496529  0.12751551  0.54055201     0.93200
O7          O  0.01306682  0.94572422  0.59338095    -0.74700
O8          O  0.89173785  0.11759455  0.57253877    -0.82200
Mg9        Mg  0.06809841  0.92411321  0.54303286     1.58000
C10         C  0.86602859  0.03719679  0.37216016     0.93100
O11         O  0.12486532  0.89335084  0.49839810    -0.80500
H12         H  0.02147838  0.01482743  0.37049265    -0.05900
C13         C  0.88995520  0.99705110  0.51347120     0.88100
O14         O  0.04405044  0.09534375  0.52009588    -0.75000
O15         O  0.01857989  0.91553159  0.49035852    -0.87800
O16         O  0.88650365  0.99944595  0.37451244    -0.80600
C17         C  0.95939721  0.87252743  0.36845175     0.93300
C18         C  0.12812907  0.87365108  0.46025649     0.93100
Mg19       Mg  0.92391243  0.07609989  0.45764704     1.58000
O20         O  0.86896827  0.11063659  0.50117073    -0.80500
O21         O  0.97868398  0.05238676  0.40820315    -0.74800
O22         O  0.99822995  0.87596856  0.38683825    -0.80600
O23         O  0.12042527  0.93336431  0.59838220    -0.82300
O24         O  0.98938672  0.12100194  0.61542336    -0.80600
C25         C  0.99669596  0.01519348  0.39718270     0.87500
O26         O  0.97204835  0.08285923  0.51150370    -0.87800
O27         O  0.91162559  0.00776063  0.47960800    -0.87900
O28         O  0.89946715  0.01277509  0.55204825    -0.74900
Mg29       Mg  0.04130683  0.93081901  0.42283712     1.58000
O30         O  0.92815887  0.90014276  0.37792515    -0.82300
H31         H  0.12521014  0.02838914  0.48914396    -0.06000
O32         O  0.00209851  0.01822086  0.58449678    -0.87600
H33         H  0.96941909  0.98221147  0.63115618    -0.05900
H34         H  0.00377856  0.13299010  0.47952623    -0.06000
C35         C  0.99402340  0.98245267  0.60438953     0.87500
C36         C  0.09891517  0.00317792  0.48705262     0.88100
C37         C  0.00609775  0.10519657  0.50306233     0.88200
H38         H  0.86318995  0.97257619  0.51040681    -0.06000
O39         O  0.94575867  0.90577223  0.48365196    -0.75000
Mg40       Mg  0.94818355  0.06646541  0.57873294     1.58000
H41         H  0.98542632  0.86787028  0.52462504    -0.06000
C42         C  0.12575190  0.96367015  0.62811507     0.93100
O43         O  0.05982795  0.09936532  0.62688102    -0.82300
C44         C  0.02721135  0.12618473  0.63488453     0.93200
O45         O  0.09884900  0.87958683  0.42935257    -0.82300
Mg46       Mg  0.92027975  0.95569290  0.42984499     1.58200
O47         O  0.10261440  0.99990629  0.62705467    -0.80600
O48         O  0.87251614  0.06833599  0.40092565    -0.82300
O49         O  0.99343469  0.52435286  0.08513479    -0.87900
C50         C  0.89586821  0.49549175  0.99220322     0.88200
Mg51       Mg  0.04348331  0.57563241  0.07362885     1.58100
O52         O  0.98335969  0.41552996  0.99794066    -0.87600
O53         O  0.98983737  0.45199894  0.09906393    -0.74900
C54         C  0.12360743  0.53878136  0.86605981     0.93200
O55         O  0.94486220  0.59174604  0.01601513    -0.74700
O56         O  0.11501290  0.57020199  0.89381708    -0.82200
Mg57       Mg  0.92431693  0.54358251  0.07342510     1.58000
C58         C  0.03901587  0.36584301  0.87811256     0.93100
O59         O  0.89476710  0.50088978  0.13226707    -0.80500
H60         H  0.02000522  0.37073839  0.03253052    -0.05900
C61         C  0.99543803  0.50922864  0.89699747     0.88100
O62         O  0.09471128  0.52269108  0.04912925    -0.75000
O63         O  0.91801912  0.48819758  0.02675848    -0.87800
O64         O  0.00161586  0.36999256  0.89860638    -0.80600
C65         C  0.87768852  0.36255843  0.97456739     0.93300
C66         C  0.87718160  0.46189551  0.13721274     0.93100
Mg67       Mg  0.07655831  0.45587473  0.93001441     1.58000
O68         O  0.10691096  0.49936826  0.87169371    -0.80500
O69         O  0.05585159  0.40756507  0.98732537    -0.74800
O70         O  0.88144649  0.38290298  0.01224156    -0.80600
O71         O  0.93041683  0.60303116  0.12183059    -0.82300
O72         O  0.12067102  0.61430364  0.99237135    -0.80600
C73         C  0.01935549  0.39657800  0.00678234     0.87500
O74         O  0.08286133  0.51112732  0.97710195    -0.87800
O75         O  0.00744777  0.47583569  0.91889423    -0.87900
O76         O  0.01084684  0.54827929  0.90521770    -0.74900
Mg77       Mg  0.93563979  0.42229541  0.05232575     1.58000
O78         O  0.90357642  0.37097428  0.94147317    -0.82300
H79         H  0.03061993  0.49499540  0.13316502    -0.06000
O80         O  0.01753131  0.58436927  0.00623433    -0.87600
H81         H  0.98090254  0.62879738  0.97115241    -0.05900
H82         H  0.13277401  0.48080569  0.01082278    -0.06000
C83         C  0.98148639  0.60303074  0.99699237     0.87500
C84         C  0.00536156  0.49102575  0.10713901     0.88100
C85         C  0.10481914  0.50418231  0.01187440     0.88200
H86         H  0.97016110  0.50530660  0.87106333    -0.06000
O87         O  0.90599691  0.47763840  0.95468056    -0.75000
Mg88       Mg  0.06535543  0.57719677  0.95192871     1.58000
H89         H  0.86793362  0.51879524  0.99365845    -0.06000
C90         C  0.96040993  0.63346001  0.12610749     0.93100
O91         O  0.09683549  0.62956796  0.06202232    -0.82300
C92         C  0.12441052  0.63522781  0.02970165     0.93200
O93         O  0.88527293  0.42986751  0.10989381    -0.82300
Mg94       Mg  0.95711104  0.42481500  0.93049591     1.58200
O95         O  0.99841121  0.63029856  0.10635458    -0.80600
O96         O  0.06957186  0.39600619  0.88098353    -0.82300
O97         O  0.52341096  0.42029303  0.51253043    -0.87900
C98         C  0.50098143  0.51590634  0.60930795     0.88200
Mg99       Mg  0.57409843  0.42751975  0.46125092     1.58100
O100        O  0.41886459  0.51411514  0.52368179    -0.87600
O101        O  0.45036754  0.41120218  0.51722244    -0.74900
C102        C  0.54392751  0.63185356  0.37302641     0.93200
O103        O  0.59561113  0.48670012  0.55838088    -0.74700
O104        O  0.57454519  0.60309729  0.38155494    -0.82200
Mg105      Mg  0.54493037  0.43254603  0.58113358     1.58000
C106        C  0.37773451  0.63901460  0.46598155     0.93100
O107        O  0.49978115  0.37762351  0.61207466    -0.80500
H108        H  0.37086618  0.48200945  0.48901348    -0.05900
C109        C  0.51845358  0.60878473  0.50641417     0.88100
O110        O  0.52152721  0.45355098  0.41023655    -0.75000
O111        O  0.49194238  0.48178703  0.58731656    -0.87800
O112        O  0.37972059  0.61872536  0.50406215    -0.80600
C113        C  0.37056937  0.54083937  0.63095993     0.93300
C114        C  0.46064578  0.37170401  0.62851577     0.93100
Mg115      Mg  0.46139948  0.57666414  0.42806236     1.58000
O116        O  0.50659348  0.63108892  0.39444298    -0.80500
O117        O  0.40989630  0.52354191  0.45107511    -0.74800
O118        O  0.38931740  0.50228262  0.62727603    -0.82600
O119        O  0.60153330  0.38033936  0.57562009    -0.82300
O120        O  0.61616760  0.50412724  0.38125675    -0.80600
C121        C  0.39846059  0.50587196  0.48836587     0.87500
O122        O  0.51348109  0.52587660  0.42168256    -0.87800
O123        O  0.48349361  0.58850078  0.49655203    -0.87900
O124        O  0.55615213  0.59827574  0.48916320    -0.74900
Mg125      Mg  0.42431099  0.45949929  0.57180974     1.58000
O126        O  0.37875461  0.57276532  0.60322192    -0.82300
H127        H  0.49049745  0.37411115  0.47632829    -0.06000
O128        O  0.58737770  0.49507254  0.48546234    -0.87600
H129        H  0.63415333  0.52859337  0.52039271    -0.05900
H130        H  0.48042917  0.49352134  0.37271930    -0.06000
C131        C  0.60714065  0.50418688  0.52097796     0.87500
C132        C  0.48857725  0.40042255  0.50136181     0.88100
C133        C  0.50435796  0.49147644  0.40019024     0.88200
H134        H  0.51708579  0.63556846  0.53103587    -0.06000
O135        O  0.48455341  0.55414068  0.59923209    -0.75000
Mg136      Mg  0.58130756  0.54810491  0.43547749     1.58000
H137        H  0.52444655  0.51337837  0.63705876    -0.06000
C138        C  0.62988793  0.37236536  0.54449479     0.93100
O139        O  0.62785907  0.43498730  0.40691891    -0.82300
C140        C  0.63612440  0.46608189  0.37854590     0.93200
O141        O  0.42927689  0.40029110  0.62160581    -0.82300
Mg142      Mg  0.43256449  0.58120310  0.54840187     1.58200
O143        O  0.62703665  0.39129202  0.50587381    -0.80600
O144        O  0.40620234  0.63033630  0.43512539    -0.82300
O145        O  0.57109744  0.96789367  0.03624205    -0.87900
C146        C  0.43875772  0.96804953  0.07191939     0.88200
Mg147      Mg  0.60651598  0.02927238  0.01943708     1.58100
O148        O  0.46078813  0.92818855  0.96243524    -0.87600
O149        O  0.55482936  0.90217209  0.00714053    -0.74900
C150        C  0.47232654  0.13868208  0.87412258     0.93200
O151        O  0.51651373  0.04377544  0.08972825    -0.74700
O152        O  0.50108258  0.14677510  0.90497520    -0.82200
Mg153      Mg  0.53356275  0.96849173  0.09839912     1.58000
C154        C  0.38047980  0.97464815  0.85490755     0.93100
O155        O  0.54900329  0.89408945  0.11770805    -0.80500
H156        H  0.49274620  0.88606897  0.92091392    -0.05900
C157        C  0.42147378  0.06079941  0.96987366     0.88100
O158        O  0.59606852  0.01733919  0.94370387    -0.75000
O159        O  0.47429970  0.94924042  0.06133928    -0.87800
O160        O  0.37727538  0.95427668  0.89274464    -0.80600
C161        C  0.36798389  0.87027309  0.01185113     0.93300
C162        C  0.53088467  0.85522966  0.11363426     0.93100
Mg163      Mg  0.47187762  0.02556514  0.88853835     1.58000
O164        O  0.45571507  0.09928939  0.86945207    -0.80500
O165        O  0.48925246  0.95043170  0.89791273    -0.74800
O166        O  0.40541458  0.86526975  0.03262327    -0.80600
O167        O  0.59576774  0.98931608  0.13796514    -0.82300
O168        O  0.59661176  0.13075073  0.95578369    -0.80600
C169        C  0.48089690  0.91992021  0.92691388     0.87500
O170        O  0.53032954  0.04556983  0.92602020    -0.87800
O171        O  0.43403250  0.02640263  0.95024298    -0.87900
O172        O  0.44889889  0.09179563  0.98045554    -0.74900
Mg173      Mg  0.47970141  0.88891653  0.02121943     1.58000
O174        O  0.36105311  0.90291654  0.98501364    -0.82300
H175        H  0.61743123  0.92947394  0.00634276    -0.06000
O176        O  0.54383365  0.06620500  0.02484574    -0.87600
H177        H  0.51286464  0.10830863  0.06715396    -0.05900
H178        H  0.57146827  0.01910756  0.87990995    -0.06000
C179        C  0.52443609  0.07439558  0.06074865     0.87500
C180        C  0.58281457  0.93314649  0.01660039     0.88100
C181        C  0.56614606  0.02765262  0.91488961     0.88200
H182        H  0.38655768  0.06392510  0.97952003    -0.06000
O183        O  0.40911367  0.97832599  0.04276595    -0.75000
Mg184      Mg  0.52363353  0.10558793  0.96661582     1.58000
H185        H  0.43337630  0.97728093  0.10674334    -0.06000
C186        C  0.62574651  0.01931250  0.13134691     0.93100
O187        O  0.64392023  0.09337505  0.00102326    -0.82300
C188        C  0.63493177  0.12612111  0.97472332     0.93200
O189        O  0.50148347  0.84761809  0.08323025    -0.82300
Mg190      Mg  0.39874088  0.96580831  0.96699857     1.58200
O191        O  0.62867897  0.04010952  0.09376290    -0.80600
O192        O  0.41045491  0.00445719  0.84827963    -0.82300
C193        C  0.59064386  0.70653845  0.27646961    -0.11400
C194        C  0.55054950  0.72398921  0.25846211     0.11200
C195        C  0.50901222  0.71074286  0.27760498    -0.03200
C196        C  0.50910796  0.68226317  0.31564624    -0.05900
C197        C  0.54909693  0.66488365  0.33460605    -0.16700
C198        C  0.59090407  0.67693458  0.31405057     0.02200
C199        C  0.55255441  0.75715267  0.22032942     0.12200
C200        C  0.46453881  0.72621496  0.25746034     0.62800
H201        H  0.47720841  0.67232765  0.33014784     0.12200
C202        C  0.63578528  0.65945728  0.33139235     0.54900
H203        H  0.62193124  0.71648196  0.26062375     0.08000
C204        C  0.55887042  0.80374872  0.22805574    -0.05800
C205        C  0.55329878  0.83415014  0.19185620    -0.06600
C206        C  0.54199562  0.81964238  0.14804987    -0.16100
C207        C  0.53991753  0.77246715  0.13959466    -0.01700
C208        C  0.54521787  0.74208619  0.17608183    -0.09300
C209        C  0.57056252  0.82128116  0.27469495     0.65000
H210        H  0.55604584  0.86995952  0.19812800     0.10400
C211        C  0.53289268  0.75391165  0.09244995     0.63400
H212        H  0.54194388  0.70615819  0.17066162     0.07800
F213        F  0.67181910  0.67867758  0.30884159    -0.19700
F214        F  0.63834390  0.61340527  0.32523689    -0.15900
F215        F  0.64029193  0.66940702  0.37669721    -0.19400
F216        F  0.46107572  0.71136125  0.21346798    -0.22800
F217        F  0.46205188  0.77271337  0.25804334    -0.24200
F218        F  0.42800332  0.70939467  0.28101819    -0.18200
F219        F  0.54026492  0.70787310  0.09084005    -0.20700
F220        F  0.56265507  0.77424718  0.06286063    -0.21900
F221        F  0.48923026  0.76185417  0.07840926    -0.19100
F222        F  0.57579131  0.86763418  0.27498824    -0.19100
F223        F  0.61055844  0.80228991  0.28913116    -0.23000
F224        F  0.53682043  0.81021277  0.30481272    -0.24600
C225        C  0.47575371  0.26243394  0.69621921    -0.11400
C226        C  0.44186091  0.26691171  0.72865425     0.11200
C227        C  0.41092556  0.30298847  0.72510923    -0.03200
C228        C  0.41679472  0.33506687  0.69039240    -0.05900
C229        C  0.45253024  0.33226340  0.65923972    -0.16700
C230        C  0.48114640  0.29367529  0.66083064     0.02200
C231        C  0.44266308  0.23520444  0.76775242     0.12200
C232        C  0.37299703  0.30866664  0.75888913     0.62800
H233        H  0.39463186  0.36398064  0.68895362     0.12200
C234        C  0.51751420  0.28476810  0.62592743     0.54900
H235        H  0.49913856  0.23463659  0.69974732     0.08000
C236        C  0.42902510  0.18971572  0.76408204    -0.05800
C237        C  0.43750536  0.16022877  0.80044718    -0.06600
C238        C  0.45953556  0.17439012  0.84025351    -0.16100
C239        C  0.47043830  0.22099211  0.84471205    -0.01700
C240        C  0.46220716  0.25023690  0.80801865    -0.09300
C241        C  0.40645655  0.17213028  0.72155747     0.65000
H242        H  0.42845043  0.12509744  0.79695493     0.10400
C243        C  0.49084701  0.24048637  0.88741896     0.63400
H244        H  0.47263476  0.28516254  0.80977328     0.07800
F245        F  0.50038063  0.29104329  0.58296506    -0.19700
F246        F  0.53341561  0.24096385  0.62849175    -0.15900
F247        F  0.55357703  0.31336911  0.63285845    -0.19400
F248        F  0.39050583  0.32085606  0.80026761    -0.22800
F249        F  0.34945045  0.26876947  0.76363714    -0.24200
F250        F  0.34280485  0.34159448  0.74538366    -0.18200
F251        F  0.53457213  0.22535640  0.89256710    -0.20700
F252        F  0.46535796  0.22786323  0.92436561    -0.21900
F253        F  0.49202631  0.28713012  0.88630339    -0.19100
F254        F  0.39221160  0.12796514  0.72651071    -0.19100
F255        F  0.43619918  0.17376216  0.68582082    -0.23000
F256        F  0.36922274  0.19810963  0.71128251    -0.24600
C257        C  0.70144861  0.23456871  0.98632750    -0.11400
C258        C  0.74023557  0.22461299  0.96139521     0.11200
C259        C  0.74420220  0.18206402  0.94008370    -0.03200
C260        C  0.70829155  0.15115796  0.94368810    -0.05900
C261        C  0.66942057  0.16141372  0.96835119    -0.16700
C262        C  0.66587677  0.20355841  0.99036001     0.02200
C263        C  0.77698256  0.25875770  0.96102281     0.12200
C264        C  0.78666375  0.16878115  0.91502794     0.62800
H265        H  0.71070016  0.11822459  0.92822900     0.12200
C266        C  0.62525372  0.21505151  0.01917396     0.54900
H267        H  0.69962999  0.26683116  0.00322187     0.08000
C268        C  0.77571183  0.29740036  0.93282863    -0.05800
C269        C  0.80962212  0.33041867  0.93751402    -0.06600
C270        C  0.84369222  0.32621935  0.97008650    -0.16100
C271        C  0.84574670  0.28675429  0.99712393    -0.01700
C272        C  0.81194539  0.25387323  0.99239166    -0.09300
C273        C  0.73811339  0.30404980  0.89873400     0.65000
H274        H  0.80908070  0.36043032  0.91666231     0.10400
C275        C  0.88413036  0.27888761  0.03010125     0.63400
H276        H  0.81203205  0.22425730  0.01382015     0.07800
F277        F  0.58712942  0.21676978  0.99246212    -0.19700
F278        F  0.63003843  0.25634414  0.04027588    -0.15900
F279        F  0.61952951  0.18257440  0.05223722    -0.19400
F280        F  0.82209797  0.16552206  0.94507765    -0.22800
F281        F  0.79691366  0.20069226  0.88261592    -0.24200
F282        F  0.78195128  0.12759424  0.89369903    -0.18200
F283        F  0.88219480  0.31013853  0.06450079    -0.20700
F284        F  0.92488406  0.28291826  0.00791207    -0.21900
F285        F  0.88230019  0.23632383  0.04925700    -0.19100
F286        F  0.74506509  0.34189154  0.87225488    -0.19100
F287        F  0.69757097  0.30915536  0.92093466    -0.23000
F288        F  0.73536767  0.26713378  0.87054823    -0.24600
C289        C  0.23868629  0.69233546  0.03803769    -0.11400
C290        C  0.22630386  0.73787691  0.03486585     0.11200
C291        C  0.18018008  0.74963100  0.03146701    -0.03200
C292        C  0.14778023  0.71496817  0.03210129    -0.05900
C293        C  0.16029082  0.66941689  0.03420348    -0.16700
C294        C  0.20627967  0.65770549  0.03764589     0.02200
C295        C  0.26269635  0.77201619  0.03065772     0.12200
C296        C  0.16538560  0.79835481  0.02564768     0.62800
H297        H  0.11234446  0.72304274  0.02910120     0.12200
C298        C  0.22076084  0.60884147  0.04113690     0.54900
H299        H  0.27416847  0.68413030  0.03970542     0.08000
C300        C  0.28573031  0.78992925  0.06840562    -0.05800
C301        C  0.32009878  0.82196925  0.06111130    -0.06600
C302        C  0.33175129  0.83628554  0.01747046    -0.16100
C303        C  0.30949261  0.81703063  0.97965242    -0.01700
C304        C  0.27542536  0.78504392  0.98712307    -0.09300
C305        C  0.27428016  0.77483376  0.11596785     0.65000
H306        H  0.33795674  0.83637144  0.08947203     0.10400
C307        C  0.32214987  0.82915114  0.93141495     0.63400
H308        H  0.25795769  0.76998800  0.95884136     0.07800
F309        F  0.19973642  0.58878187  0.07762017    -0.19700
F310        F  0.26681710  0.60477362  0.04698790    -0.15900
F311        F  0.20895790  0.58615257  0.00223290    -0.19400
F312        F  0.18200233  0.81541512  0.98557688    -0.22800
F313        F  0.18134357  0.82419910  0.06088065    -0.24200
F314        F  0.11896987  0.80237990  0.02468677    -0.18200
F315        F  0.30165084  0.80099055  0.90042245    -0.20700
F316        F  0.36820827  0.82546403  0.92564281    -0.21900
F317        F  0.30874276  0.87273906  0.92191046    -0.19100
F318        F  0.29971019  0.79732582  0.14791686    -0.19100
F319        F  0.28252687  0.72921446  0.12050801    -0.23000
F320        F  0.22939144  0.78301863  0.12489332    -0.24600
C321        C  0.21547761  0.58755111  0.78748568    -0.11400
C322        C  0.22229680  0.55127088  0.75820397     0.11200
C323        C  0.19454682  0.51271888  0.76202899    -0.03200
C324        C  0.16146996  0.51138017  0.79606180    -0.05900
C325        C  0.15553054  0.54678403  0.82720246    -0.16700
C326        C  0.18252836  0.58645279  0.82185277     0.02200
C327        C  0.26117175  0.55296710  0.72629774     0.12200
C328        C  0.20084017  0.47244072  0.73109347     0.62800
H329        H  0.14084370  0.48151098  0.79935972     0.12200
C330        C  0.17810998  0.62738822  0.85233717     0.54900
H331        H  0.23741488  0.61647282  0.78386797     0.08000
C332        C  0.25839601  0.57348006  0.68323688    -0.05800
C333        C  0.29545426  0.56988204  0.65370637    -0.06600
C334        C  0.33534907  0.54747212  0.66626171    -0.16100
C335        C  0.33934814  0.53051587  0.71093014    -0.01700
C336        C  0.30192614  0.53334070  0.74002948    -0.09300
C337        C  0.21668573  0.59935368  0.66878236     0.65000
H338        H  0.29309783  0.58372828  0.61996562     0.10400
C339        C  0.38313418  0.51074060  0.72848481     0.63400
H340        H  0.30382276  0.51929075  0.77372610     0.07800
F341        F  0.20645126  0.66213703  0.83937666    -0.19700
F342        F  0.18912749  0.61580153  0.89619009    -0.15900
F343        F  0.13454472  0.64374393  0.85060109    -0.19400
F344        F  0.24300125  0.45391982  0.73776571    -0.22800
F345        F  0.19686480  0.48567580  0.68657277    -0.24200
F346        F  0.16913998  0.43917962  0.73907242    -0.18200
F347        F  0.38217059  0.50482411  0.77480832    -0.20700
F348        F  0.41842380  0.53950282  0.71849854    -0.21900
F349        F  0.39087622  0.46922862  0.70898150    -0.19100
F350        F  0.22059173  0.61589665  0.62530579    -0.19100
F351        F  0.21014845  0.63548093  0.69734566    -0.23000
F352        F  0.17923861  0.57180567  0.67035779    -0.24600
C353        C  0.73389095  0.42023285  0.30602723    -0.11400
C354        C  0.74377683  0.45805952  0.27949536     0.11200
C355        C  0.71599933  0.49661232  0.28243532    -0.03200
C356        C  0.68110537  0.49713008  0.31451502    -0.05900
C357        C  0.67168437  0.45992561  0.34278674    -0.16700
C358        C  0.69787916  0.41988826  0.33715122     0.02200
C359        C  0.78047416  0.45474929  0.24542298     0.12200
C360        C  0.72262109  0.53674992  0.25106494     0.62800
H361        H  0.66080523  0.52717008  0.31756592     0.12200
C362        C  0.68802495  0.37642464  0.36259836     0.54900
H363        H  0.75468250  0.39059939  0.30168550     0.08000
C364        C  0.82519946  0.46872927  0.25420506    -0.05800
C365        C  0.85621749  0.46999118  0.21816154    -0.06600
C366        C  0.84458259  0.45490696  0.17474945    -0.16100
C367        C  0.80074937  0.43712581  0.16727091    -0.01700
C368        C  0.76939357  0.43781251  0.20282840    -0.09300
C369        C  0.84030487  0.48062103  0.30164379     0.65000
H370        H  0.89000959  0.48253514  0.22365107     0.10400
C371        C  0.78619291  0.41925836  0.12155711     0.63400
H372        H  0.73530111  0.42604697  0.19746778     0.07800
F373        F  0.71466977  0.34110981  0.34793343    -0.19700
F374        F  0.64362098  0.36405840  0.35587509    -0.15900
F375        F  0.69623176  0.38215904  0.40812720    -0.19400
F376        F  0.71827737  0.52310848  0.20675835    -0.22800
F377        F  0.76489012  0.55514232  0.25714177    -0.24200
F378        F  0.69121195  0.57029655  0.25864475    -0.18200
F379        F  0.81166211  0.38192948  0.11045124    -0.20700
F380        F  0.79174383  0.45228862  0.08904345    -0.21900
F381        F  0.74141497  0.40629871  0.12132480    -0.19100
F382        F  0.88517046  0.49318788  0.30289406    -0.19100
F383        F  0.83489236  0.44348931  0.32938319    -0.23000
F384        F  0.81504313  0.51580168  0.31850088    -0.24600
C385        C  0.72889625  0.30157864  0.58857912    -0.11400
C386        C  0.73134149  0.26845920  0.55492237     0.11200
C387        C  0.69831775  0.26754797  0.52050781    -0.03200
C388        C  0.66675608  0.30280104  0.51811158    -0.05900
C389        C  0.66482096  0.33684712  0.55088469    -0.16700
C390        C  0.69511738  0.33521318  0.58791982     0.02200
C391        C  0.76870671  0.23493347  0.55567815     0.12200
C392        C  0.69557758  0.22856149  0.48741662     0.62800
H393        H  0.64231871  0.30342173  0.49098871     0.12200
C394        C  0.69209984  0.36888690  0.62615174     0.54900
H395        H  0.75361601  0.30071083  0.61542166     0.08000
C396        C  0.80712507  0.24019925  0.52793640    -0.05800
C397        C  0.83668261  0.20351201  0.52295824    -0.06600
C398        C  0.83109285  0.16346711  0.54761065    -0.16100
C399        C  0.79548404  0.16007039  0.57912114    -0.01700
C400        C  0.76394406  0.19559423  0.58173510    -0.09300
C401        C  0.81803979  0.28506744  0.50558653     0.65000
H402        H  0.86548134  0.20632630  0.50075673     0.10400
C403        C  0.79057863  0.11888539  0.60906574     0.63400
H404        H  0.73494375  0.19273899  0.60363765     0.07800
F405        F  0.72637200  0.36300296  0.65728573    -0.19700
F406        F  0.65160826  0.36355182  0.64847799    -0.15900
F407        F  0.69491700  0.41227238  0.60925985    -0.19400
F408        F  0.68916493  0.18877899  0.51094568    -0.22800
F409        F  0.73475980  0.22530746  0.46261493    -0.24200
F410        F  0.66014254  0.23359492  0.45749929    -0.18200
F411        F  0.75249746  0.12127514  0.63579401    -0.20700
F412        F  0.82757309  0.11536288  0.63718991    -0.21900
F413        F  0.78757830  0.08057416  0.58279217    -0.19100
F414        F  0.85573162  0.28217068  0.47833593    -0.19100
F415        F  0.82644352  0.31674028  0.53864602    -0.23000
F416        F  0.78263396  0.29983618  0.47919411    -0.24600
C417        C  0.30906252  0.74163803  0.42306276    -0.11400
C418        C  0.27494883  0.74381725  0.45561244     0.11200
C419        C  0.27375206  0.71088332  0.49020659    -0.03200
C420        C  0.30691308  0.67687470  0.49107505    -0.05900
C421        C  0.34199991  0.67470137  0.45911785    -0.16700
C422        C  0.34319691  0.70831232  0.42441832     0.02200
C423        C  0.23967608  0.77981335  0.45201762     0.12200
C424        C  0.23780456  0.71205353  0.52662528     0.62800
H425        H  0.30571242  0.65168349  0.51748575     0.12200
C426        C  0.38051203  0.71037855  0.38939824     0.54900
H427        H  0.30881934  0.76680056  0.39656530     0.08000
C428        C  0.24623042  0.82411674  0.46855309    -0.05800
C429        C  0.20933984  0.85417954  0.46925219    -0.06600
C430        C  0.16656780  0.84183730  0.45301134    -0.16100
C431        C  0.16079443  0.79808505  0.43430498    -0.01700
C432        C  0.19775166  0.76818251  0.43366694    -0.09300
C433        C  0.29191251  0.83945991  0.48558835     0.65000
H434        H  0.21348952  0.88765727  0.48308319     0.10400
C435        C  0.11537638  0.78179855  0.41731184     0.63400
H436        H  0.19383044  0.73449250  0.42028263     0.07800
F437        F  0.37578396  0.74695864  0.36069351    -0.19700
F438        F  0.37979669  0.67185912  0.36327577    -0.15900
F439        F  0.42182637  0.71440163  0.41058785    -0.19400
F440        F  0.19569119  0.70660907  0.50761064    -0.22800
F441        F  0.23930896  0.75284882  0.54896529    -0.24200
F442        F  0.24376431  0.67816916  0.55818198    -0.18200
F443        F  0.10277405  0.80650491  0.37979768    -0.20700
F444        F  0.08332180  0.78663600  0.45074478    -0.21900
F445        F  0.11643323  0.73679007  0.40515129    -0.19100
F446        F  0.29087582  0.88350927  0.50083372    -0.19100
F447        F  0.32303553  0.83706279  0.45107618    -0.23000
F448        F  0.30588112  0.81222540  0.52078564    -0.24600
C449        C  0.22224361  0.92042812  0.70375412    -0.11400
C450        C  0.23495503  0.96041217  0.72525063     0.11200
C451        C  0.21157713  0.00075190  0.71560376    -0.03200
C452        C  0.17504486  0.99932698  0.68552081    -0.05900
C453        C  0.16202137  0.95943039  0.66319086    -0.16700
C454        C  0.18624509  0.91892910  0.67268658     0.02200
C455        C  0.27299132  0.95914845  0.75789230     0.12200
C456        C  0.22622436  0.04551832  0.73570205     0.62800
H457        H  0.15747246  0.03036225  0.67792798     0.12200
C458        C  0.17478763  0.87410632  0.65079147     0.54900
H459        H  0.24132564  0.89027070  0.71140284     0.08000
C460        C  0.26649526  0.94732892  0.80360441    -0.05800
C461        C  0.30288356  0.95155718  0.83371054    -0.06600
C462        C  0.34580609  0.96582603  0.81936938    -0.16100
C463        C  0.35307813  0.97349198  0.77250098    -0.01700
C464        C  0.31616750  0.97053194  0.74270837    -0.09300
C465        C  0.22116190  0.93058388  0.82040216     0.65000
H466        H  0.29748709  0.94500826  0.86918716     0.10400
C467        C  0.39939495  0.98373124  0.75339987     0.63400
H468        H  0.32048859  0.97799900  0.70720582     0.07800
F469        F  0.19961742  0.83894990  0.66891688    -0.19700
F470        F  0.18409853  0.87591209  0.60514207    -0.15900
F471        F  0.12974697  0.86433247  0.65737938    -0.19400
F472        F  0.26877688  0.05633178  0.72028151    -0.22800
F473        F  0.22707341  0.04278867  0.78221534    -0.24200
F474        F  0.19746776  0.08028152  0.72376792    -0.18200
F475        F  0.40001754  0.98030140  0.70685005    -0.20700
F476        F  0.43042914  0.95331918  0.77036415    -0.21900
F477        F  0.41216441  0.02709106  0.76455657    -0.19100
F478        F  0.22193379  0.92091206  0.86607920    -0.19100
F479        F  0.20951725  0.89159246  0.79781027    -0.23000
F480        F  0.18845878  0.96286589  0.81284715    -0.24600
C481        C  0.75378026  0.05272936  0.31186836    -0.11400
C482        C  0.76520892  0.04075153  0.26769148     0.11200
C483        C  0.81082935  0.03216974  0.25678898    -0.03200
C484        C  0.84325138  0.03281978  0.29157991    -0.05900
C485        C  0.83159563  0.04324428  0.33624658    -0.16700
C486        C  0.78617948  0.05406787  0.34656678     0.02200
C487        C  0.72823437  0.03557149  0.23407965     0.12200
C488        C  0.82498221  0.02224320  0.20864472     0.62800
H489        H  0.87800685  0.02462526  0.28429817     0.12200
C490        C  0.77144195  0.06483333  0.39438903     0.54900
H491        H  0.71878629  0.05983580  0.31913648     0.08000
C492        C  0.70427609  0.99461064  0.22962127    -0.05800
C493        C  0.67114060  0.99113933  0.19585853    -0.06600
C494        C  0.65990161  0.02763315  0.16753176    -0.16100
C495        C  0.68191290  0.06971068  0.17429823    -0.01700
C496        C  0.71617595  0.07264197  0.20723377    -0.09300
C497        C  0.71278152  0.95513300  0.26130696     0.65000
H498        H  0.65374440  0.95942256  0.19127112     0.10400
C499        C  0.66886817  0.11175253  0.14804693     0.63400
H500        H  0.73415907  0.10399544  0.21218729     0.07800
F501        F  0.72525914  0.07012356  0.39754723    -0.19700
F502        F  0.79136534  0.10452307  0.40837013    -0.15900
F503        F  0.78386904  0.03021445  0.42316119    -0.19400
F504        F  0.81380186  0.05828715  0.18120574    -0.22800
F505        F  0.80334584  0.98408497  0.19311102    -0.24200
F506        F  0.87091708  0.01522578  0.20523502    -0.18200
F507        F  0.68738813  0.15021328  0.16681315    -0.20700
F508        F  0.62257897  0.11688444  0.14816960    -0.21900
F509        F  0.68402224  0.10848336  0.10412836    -0.19100
F510        F  0.68770136  0.91762244  0.24955139    -0.19100
F511        F  0.70103941  0.96722923  0.30470234    -0.23000
F512        F  0.75769252  0.94305773  0.26066287    -0.24600
C513        C  0.96952313  0.74604343  0.18836512    -0.11400
C514        C  0.94482700  0.73652734  0.22749151     0.11200
C515        C  0.91953251  0.69622875  0.22998705    -0.03200
C516        C  0.92432193  0.66411500  0.19535855    -0.05900
C517        C  0.95217220  0.67184953  0.15766129    -0.16700
C518        C  0.97295537  0.71480372  0.15281523     0.02200
C519        C  0.94697909  0.76923376  0.26551568     0.12200
C520        C  0.88729120  0.68760245  0.26877817     0.62800
H521        H  0.90712490  0.63207222  0.19821231     0.12200
C522        C  0.99863291  0.72827378  0.11063708     0.54900
H523        H  0.98726837  0.77789261  0.18641422     0.08000
C524        C  0.98177059  0.76758606  0.29806870    -0.05800
C525        C  0.98305220  0.80065770  0.33204290    -0.06600
C526        C  0.95163928  0.83622661  0.33392965    -0.16100
C527        C  0.91658907  0.83766128  0.30077855    -0.01700
C528        C  0.91502792  0.80380044  0.26742391    -0.09300
C529        C  0.01821050  0.73168066  0.29606280     0.65000
H530        H  0.00962441  0.79941228  0.35698951     0.10400
C531        C  0.88152936  0.87504238  0.29898990     0.63400
H532        H  0.88915369  0.80437037  0.24169126     0.07800
F533        F  0.04112926  0.70933918  0.11150806    -0.19700
F534        F  0.00330851  0.77462076  0.10753696    -0.15900
F535        F  0.97588173  0.71405080  0.07250282    -0.19400
F536        F  0.85411714  0.72026816  0.26863517    -0.22800
F537        F  0.90988680  0.68908598  0.30948497    -0.24200
F538        F  0.86662695  0.64592794  0.26534649    -0.18200
F539        F  0.85261972  0.87042481  0.26263322    -0.20700
F540        F  0.90252596  0.91646468  0.29481799    -0.21900
F541        F  0.85563972  0.87413538  0.33770524    -0.19100
F542        F  0.04849581  0.73550419  0.33131334    -0.19100
F543        F  0.04189783  0.73572581  0.25617240    -0.23000
F544        F  0.99917483  0.68925044  0.29823859    -0.24600
C545        C  0.00998817  0.23139083  0.70912945    -0.11400
C546        C  0.04296384  0.22487113  0.74228907     0.11200
C547        C  0.07047666  0.18599031  0.74032642    -0.03200
C548        C  0.06540221  0.15603701  0.70373022    -0.05900
C549        C  0.03239703  0.16237539  0.67005488    -0.16700
C550        C  0.00387244  0.20104433  0.67306739     0.02200
C551        C  0.04707028  0.25948570  0.77874149     0.12200
C552        C  0.10373720  0.17513964  0.77769923     0.62800
H553        H  0.08618102  0.12611852  0.70233842     0.12200
C554        C  0.96686948  0.21098976  0.63896462     0.54900
H555        H  0.98844428  0.26064793  0.71223210     0.08000
C556        C  0.06740403  0.30204671  0.77099344    -0.05800
C557        C  0.06657119  0.33465382  0.80551388    -0.06600
C558        C  0.04503542  0.32670046  0.84697568    -0.16100
C559        C  0.02629130  0.28329564  0.85536793    -0.01700
C560        C  0.02750337  0.25060337  0.82086921    -0.09300
C561        C  0.08871470  0.31351386  0.72587693     0.65000
H562        H  0.08064028  0.36775578  0.79930053     0.10400
C563        C  0.00498531  0.27109003  0.90034365     0.63400
H564        H  0.01158059  0.21816614  0.82597913     0.07800
F565        F  0.94825818  0.25331459  0.64513600    -0.19700
F566        F  0.93258790  0.17977770  0.64346447    -0.15900
F567        F  0.98407908  0.20954961  0.59568347    -0.19400
F568        F  0.08050707  0.16477617  0.81673515    -0.22800
F569        F  0.13151336  0.21165341  0.78561457    -0.24200
F570        F  0.13061417  0.13862262  0.76698895    -0.18200
F571        F  0.96356720  0.29188877  0.90436569    -0.20700
F572        F  0.03269161  0.28451115  0.93535105    -0.21900
F573        F  0.99834169  0.22507327  0.90445779    -0.19100
F574        F  0.11004280  0.35498456  0.72669074    -0.19100
F575        F  0.05600725  0.31502193  0.69274515    -0.23000
F576        F  0.12033466  0.28124417  0.71476515    -0.24600
loop_ 
_geom_bond_atom_site_label_1 
_geom_bond_atom_site_label_2 
_geom_bond_distance 
_geom_bond_site_symmetry_2 
_ccdc_geom_bond_type 
O1           Mg3   2.174   1_565  S
O1           Mg9   2.157       .  S
O1           C36   1.235   1_565  S
C2           O15   1.236   1_655  S
C2           O39   1.271       .  A
C2           H41   1.082       .  S
Mg3          O32   2.161       .  S
Mg3          O47   2.304   1_545  S
Mg3          O43   2.310       .  S
Mg3          O14   2.296       .  S
O4          Mg46   2.159       .  S
O4          Mg29   2.161   1_655  S
O4           C25   1.236   1_565  S
O5           C36   1.271   1_565  A
O5          Mg29   2.309       .  S
C6            O8   1.271       .  A
C6           O20   1.278       .  A
C6          C398   1.482       .  S
O7           C35   1.272   1_455  A
O7           Mg9   2.308       .  S
O8          Mg40   2.269       .  S
Mg9          O15   2.160       .  S
Mg9          O23   2.277       .  S
Mg9          O11   2.333       .  S
C10          O48   1.274       .  A
C10          O16   1.277   1_545  A
C10         C485   1.487       .  S
O11          C18   1.279       .  A
H12          C25   1.082   1_455  S
C13          O27   1.235   1_565  S
C13          O28   1.269   1_565  A
C13          H38   1.081       .  S
O14          C37   1.269       .  A
O15         Mg29   2.161       .  S
O16         Mg46   2.318       .  S
C17          O30   1.271       .  A
C17          O22   1.280       .  A
C17         C526   1.506       .  S
C18          O45   1.275       .  A
C18         C430   1.498       .  S
Mg19         O26   2.153       .  S
Mg19         O27   2.159       .  S
Mg19         O20   2.323       .  S
Mg19         O21   2.304       .  S
Mg19         O48   2.283       .  S
O21          C25   1.271       .  A
O22         Mg29   2.331   1_655  S
O23          C42   1.271       .  A
O24          C44   1.272   1_655  A
O24         Mg40   2.304       .  S
O26         Mg40   2.171       .  S
O26          C37   1.235   1_655  S
O27         Mg46   2.156   1_545  S
O28         Mg40   2.294       .  S
Mg29         O45   2.296       .  S
O30         Mg46   2.271       .  S
H31          C36   1.083       .  S
O32         Mg40   2.155   1_455  S
O32          C35   1.237   1_445  S
H33          C35   1.080       .  S
H34          C37   1.081       .  S
O39         Mg46   2.302       .  S
C42          O47   1.277       .  A
C42         C453   1.502       .  S
O43          C44   1.277       .  A
C44         C549   1.507       .  S
O49         Mg51   2.154   1_655  S
O49         Mg57   2.159       .  S
O49          C84   1.235   1_655  S
C50          O63   1.236   1_556  S
C50          O87   1.270       .  A
C50          H89   1.081       .  S
Mg51         O80   2.157       .  S
Mg51         O95   2.320   1_455  S
Mg51         O91   2.278       .  S
Mg51         O62   2.307       .  S
O52         Mg94   2.163       .  S
O52         Mg77   2.159   1_556  S
O52          C73   1.236   1_656  S
O53          C84   1.270   1_655  A
O53         Mg77   2.301       .  S
C54          O56   1.272       .  A
C54          O68   1.281       .  A
C54         C325   1.512       .  S
O55          C83   1.271   1_554  A
O55         Mg57   2.303       .  S
O56         Mg88   2.280       .  S
Mg57         O63   2.160       .  S
Mg57         O71   2.285       .  S
Mg57         O59   2.326       .  S
C58          O96   1.278       .  A
C58          O64   1.273       .  A
C58         C558   1.497       .  S
O59          C66   1.278       .  A
H60          C73   1.081       .  S
C61          O75   1.236   1_655  S
C61          O76   1.270   1_655  A
C61          H86   1.081       .  S
O62          C85   1.272       .  A
O63         Mg77   2.160       .  S
O64         Mg94   2.303   1_455  S
C65          O78   1.272       .  A
C65          O70   1.276   1_556  A
C65         C270   1.484       .  S
C66          O93   1.274       .  A
C66         C366   1.491       .  S
Mg67         O74   2.165       .  S
Mg67         O75   2.162       .  S
Mg67         O68   2.337       .  S
Mg67         O69   2.305       .  S
Mg67         O96   2.308       .  S
O69          C73   1.271   1_556  A
O70         Mg77   2.319       .  S
O71          C90   1.275       .  A
O72          C92   1.276   1_556  A
O72         Mg88   2.314       .  S
O74         Mg88   2.160       .  S
O74          C85   1.237   1_556  S
O75         Mg94   2.155   1_455  S
O76         Mg88   2.298       .  S
Mg77         O93   2.283       .  S
O78         Mg94   2.277       .  S
H79          C84   1.083       .  S
O80         Mg88   2.160   1_554  S
O80          C83   1.236   1_454  S
H81          C83   1.081       .  S
H82          C85   1.083       .  S
O87         Mg94   2.300       .  S
C90          O95   1.276       .  A
C90         C517   1.497       .  S
O91          C92   1.273       .  A
C92         C293   1.478       .  S
O97         Mg99   2.152       .  S
O97        Mg105   2.164       .  S
O97         C132   1.236       .  S
C98         O111   1.235       .  S
C98         O135   1.270       .  A
C98         H137   1.081       .  S
Mg99        O128   2.167       .  S
Mg99        O143   2.317       .  S
Mg99        O139   2.281       .  S
Mg99        O110   2.305       .  S
O100       Mg142   2.162       .  S
O100       Mg125   2.163       .  S
O100        C121   1.235       .  S
O101        C132   1.271       .  A
O101       Mg125   2.300       .  S
C102        O104   1.272       .  A
C102        O116   1.279       .  A
C102        C197   1.509       .  S
O103        C131   1.271       .  A
O103       Mg105   2.302       .  S
O104       Mg136   2.291       .  S
Mg105       O111   2.157       .  S
Mg105       O119   2.293       .  S
Mg105       O107   2.300       .  S
C106        O144   1.274       .  A
C106        O112   1.280       .  A
C106        C421   1.513       .  S
O107        C114   1.273       .  A
H108        C121   1.083       .  S
C109        O123   1.236       .  S
C109        O124   1.271       .  A
C109        H134   1.082       .  S
O110        C133   1.270       .  A
O111       Mg125   2.165       .  S
O112       Mg142   2.329       .  S
C113        O126   1.277       .  A
C113        O118   1.278       .  A
C113        C334   1.495       .  S
C114        O141   1.276       .  A
C114        C229   1.501       .  S
Mg115       O122   2.169       .  S
Mg115       O123   2.164       .  S
Mg115       O116   2.324       .  S
Mg115       O117   2.300       .  S
Mg115       O144   2.297       .  S
O117        C121   1.269       .  A
O118       Mg125   2.327       .  S
O119        C138   1.273       .  A
O120        C140   1.278       .  A
O120       Mg136   2.319       .  S
O122       Mg136   2.159       .  S
O122        C133   1.235       .  S
O123       Mg142   2.169       .  S
O124       Mg136   2.308       .  S
Mg125       O141   2.297       .  S
O126       Mg142   2.295       .  S
H127        C132   1.081       .  S
O128       Mg136   2.167       .  S
O128        C131   1.236       .  S
H129        C131   1.081       .  S
H130        C133   1.082       .  S
O135       Mg142   2.301       .  S
C138        O143   1.277       .  A
C138        C389   1.491       .  S
O139        C140   1.271       .  A
C140        C357   1.509       .  S
O145       Mg147   2.161   1_565  S
O145       Mg153   2.156       .  S
O145        C180   1.236       .  S
C146        O159   1.236       .  S
C146        O183   1.270       .  A
C146        H185   1.081       .  S
Mg147       O176   2.168       .  S
Mg147       O191   2.323       .  S
Mg147       O187   2.269       .  S
Mg147       O158   2.296   1_554  S
O148       Mg190   2.160       .  S
O148       Mg173   2.168   1_556  S
O148        C169   1.237       .  S
O149        C180   1.271       .  A
O149       Mg173   2.305       .  S
C150        O152   1.275       .  A
C150        O164   1.277       .  A
C150        C238   1.507       .  S
O151        C179   1.271       .  A
O151       Mg153   2.305   1_545  S
O152       Mg184   2.296       .  S
Mg153       O159   2.153       .  S
Mg153       O167   2.275       .  S
Mg153       O155   2.325       .  S
C154        O192   1.270   1_565  A
C154        O160   1.277       .  A
C154        C462   1.497       .  S
O155        C162   1.279       .  A
H156        C169   1.080       .  S
C157        O171   1.235       .  S
C157        O172   1.269       .  A
C157        H182   1.081       .  S
O158        C181   1.269       .  A
O159       Mg173   2.159       .  S
O160       Mg190   2.319       .  S
C161        O174   1.269   1_554  A
C161        O166   1.279       .  A
C161        C302   1.484       .  S
C162        O189   1.275       .  A
C162        C206   1.503       .  S
Mg163       O170   2.146       .  S
Mg163       O171   2.149       .  S
Mg163       O164   2.309       .  S
Mg163       O165   2.305   1_545  S
Mg163       O192   2.269       .  S
O165        C169   1.272       .  A
O166       Mg173   2.341       .  S
O167        C186   1.274   1_565  A
O168        C188   1.276       .  A
O168       Mg184   2.316       .  S
O170       Mg184   2.162       .  S
O170        C181   1.235       .  S
O171       Mg190   2.139   1_545  S
O172       Mg184   2.295       .  S
Mg173       O189   2.300       .  S
O174       Mg190   2.240       .  S
H175        C180   1.079       .  S
O176       Mg184   2.167   1_554  S
O176        C179   1.236       .  S
H177        C179   1.081       .  S
H178        C181   1.081       .  S
O183       Mg190   2.299   1_554  S
C186        O191   1.276       .  A
C186        C494   1.497       .  S
O187        C188   1.273   1_554  A
C188        C261   1.477       .  S
C193        H203   1.083       .  S
C193        C194   1.404       .  A
C193        C198   1.417       .  A
C194        C199   1.498       .  S
C194        C195   1.414       .  A
C195        C196   1.408       .  A
C195        C200   1.520       .  S
C196        H201   1.082       .  S
C196        C197   1.411       .  A
C197        C198   1.429       .  A
C198        C202   1.520       .  S
C199        C204   1.415       .  A
C199        C208   1.404       .  A
C200        F216   1.382       .  S
C200        F217   1.382       .  S
C200        F218   1.384       .  S
C202        F213   1.385       .  S
C202        F214   1.381       .  S
C202        F215   1.383       .  S
C204        C205   1.410       .  A
C204        C209   1.519       .  S
C205        H210   1.082       .  S
C205        C206   1.410       .  A
C206        C207   1.424       .  A
C207        C208   1.415       .  A
C207        C211   1.519       .  S
C208        H212   1.083       .  S
C209        F222   1.384       .  S
C209        F223   1.382       .  S
C209        F224   1.382       .  S
C211        F219   1.385       .  S
C211        F220   1.384       .  S
C211        F221   1.382       .  S
C225        H235   1.083       .  S
C225        C226   1.400       .  A
C225        C230   1.408       .  A
C226        C231   1.492       .  S
C226        C227   1.415       .  A
C227        C228   1.411       .  A
C227        C232   1.519       .  S
C228        H233   1.082       .  S
C228        C229   1.411       .  A
C229        C230   1.427       .  A
C230        C234   1.521       .  S
C231        C236   1.414       .  A
C231        C240   1.401       .  A
C232        F248   1.382       .  S
C232        F249   1.382       .  S
C232        F250   1.385       .  S
C234        F245   1.384       .  S
C234        F246   1.385       .  S
C234        F247   1.382       .  S
C236        C237   1.410       .  A
C236        C241   1.521       .  S
C237        H242   1.082       .  S
C237        C238   1.414       .  A
C238        C239   1.427       .  A
C239        C240   1.411       .  A
C239        C243   1.520       .  S
C240        H244   1.083       .  S
C241        F254   1.385       .  S
C241        F255   1.382       .  S
C241        F256   1.382       .  S
C243        F251   1.383       .  S
C243        F252   1.384       .  S
C243        F253   1.385       .  S
C257        H267   1.083   1_556  S
C257        C258   1.402       .  A
C257        C262   1.406       .  A
C258        C263   1.489       .  S
C258        C259   1.419       .  A
C259        C260   1.411       .  A
C259        C264   1.518       .  S
C260        H265   1.083       .  S
C260        C261   1.402       .  A
C261        C262   1.416       .  A
C262        C266   1.519   1_556  S
C263        C268   1.418       .  A
C263        C272   1.401       .  A
C264        F280   1.382       .  S
C264        F281   1.382       .  S
C264        F282   1.385       .  S
C266        F277   1.383   1_554  S
C266        F278   1.385       .  S
C266        F279   1.384       .  S
C268        C269   1.412       .  A
C268        C273   1.519       .  S
C269        H274   1.083       .  S
C269        C270   1.404       .  A
C270        C271   1.419       .  A
C271        C272   1.407       .  A
C271        C275   1.519   1_556  S
C272        H276   1.083   1_556  S
C273        F286   1.384       .  S
C273        F287   1.382       .  S
C273        F288   1.382       .  S
C275        F283   1.382       .  S
C275        F284   1.384       .  S
C275        F285   1.385       .  S
C289        H299   1.083       .  S
C289        C290   1.404       .  A
C289        C294   1.408       .  A
C290        C295   1.487       .  S
C290        C291   1.418       .  A
C291        C292   1.409       .  A
C291        C296   1.521       .  S
C292        H297   1.083       .  S
C292        C293   1.403       .  A
C293        C294   1.414       .  A
C294        C298   1.516       .  S
C295        C300   1.416       .  A
C295        C304   1.399   1_554  A
C296        F312   1.382   1_554  S
C296        F313   1.381       .  S
C296        F314   1.385       .  S
C298        F309   1.383       .  S
C298        F310   1.384       .  S
C298        F311   1.382       .  S
C300        C301   1.412       .  A
C300        C305   1.518       .  S
C301        H306   1.083       .  S
C301        C302   1.405       .  A
C302        C303   1.423   1_554  A
C303        C304   1.405       .  A
C303        C307   1.522       .  S
C304        H308   1.083       .  S
C305        F318   1.384       .  S
C305        F319   1.382       .  S
C305        F320   1.382       .  S
C307        F315   1.385       .  S
C307        F316   1.384       .  S
C307        F317   1.382       .  S
C321        H331   1.083       .  S
C321        C322   1.400       .  A
C321        C326   1.414       .  A
C322        C327   1.495       .  S
C322        C323   1.414       .  A
C323        C324   1.410       .  A
C323        C328   1.521       .  S
C324        H329   1.082       .  S
C324        C325   1.412       .  A
C325        C326   1.433       .  A
C326        C330   1.522       .  S
C327        C332   1.416       .  A
C327        C336   1.403       .  A
C328        F344   1.382       .  S
C328        F345   1.382       .  S
C328        F346   1.384       .  S
C330        F341   1.385       .  S
C330        F342   1.383       .  S
C330        F343   1.383       .  S
C332        C333   1.412       .  A
C332        C337   1.519       .  S
C333        H338   1.083       .  S
C333        C334   1.409       .  A
C334        C335   1.421       .  A
C335        C336   1.411       .  A
C335        C339   1.518       .  S
C336        H340   1.083       .  S
C337        F350   1.384       .  S
C337        F351   1.382       .  S
C337        F352   1.381       .  S
C339        F347   1.385       .  S
C339        F348   1.384       .  S
C339        F349   1.382       .  S
C353        H363   1.083       .  S
C353        C354   1.400       .  A
C353        C358   1.414       .  A
C354        C359   1.491       .  S
C354        C355   1.414       .  A
C355        C356   1.408       .  A
C355        C360   1.522       .  S
C356        H361   1.081       .  S
C356        C357   1.413       .  A
C357        C358   1.431       .  A
C358        C362   1.521       .  S
C359        C364   1.416       .  A
C359        C368   1.400       .  A
C360        F376   1.382       .  S
C360        F377   1.381       .  S
C360        F378   1.384       .  S
C362        F373   1.385       .  S
C362        F374   1.384       .  S
C362        F375   1.383       .  S
C364        C365   1.413       .  A
C364        C369   1.519       .  S
C365        H370   1.083       .  S
C365        C366   1.407       .  A
C366        C367   1.423       .  A
C367        C368   1.408       .  A
C367        C371   1.520       .  S
C368        H372   1.083       .  S
C369        F382   1.385       .  S
C369        F383   1.383       .  S
C369        F384   1.381       .  S
C371        F379   1.383       .  S
C371        F380   1.383       .  S
C371        F381   1.385       .  S
C385        H395   1.083       .  S
C385        C386   1.405       .  A
C385        C390   1.416       .  A
C386        C391   1.491       .  S
C386        C387   1.415       .  A
C387        C388   1.407       .  A
C387        C392   1.521       .  S
C388        H393   1.083       .  S
C388        C389   1.405       .  A
C389        C390   1.420       .  A
C390        C394   1.516       .  S
C391        C396   1.416       .  A
C391        C400   1.405       .  A
C392        F408   1.383       .  S
C392        F409   1.381       .  S
C392        F410   1.384       .  S
C394        F405   1.385       .  S
C394        F406   1.383       .  S
C394        F407   1.383       .  S
C396        C397   1.407       .  A
C396        C401   1.521       .  S
C397        H402   1.083       .  S
C397        C398   1.403       .  A
C398        C399   1.416       .  A
C399        C400   1.413       .  A
C399        C403   1.516       .  S
C400        H404   1.083       .  S
C401        F414   1.385       .  S
C401        F415   1.383       .  S
C401        F416   1.381       .  S
C403        F411   1.384       .  S
C403        F412   1.383       .  S
C403        F413   1.383       .  S
C417        H427   1.083       .  S
C417        C418   1.402       .  A
C417        C422   1.417       .  A
C418        C423   1.500       .  S
C418        C419   1.416       .  A
C419        C420   1.411       .  A
C419        C424   1.520       .  S
C420        H425   1.082       .  S
C420        C421   1.411       .  A
C421        C422   1.432       .  A
C422        C426   1.521       .  S
C423        C428   1.418       .  A
C423        C432   1.402       .  A
C424        F440   1.382       .  S
C424        F441   1.382       .  S
C424        F442   1.383       .  S
C426        F437   1.385       .  S
C426        F438   1.383       .  S
C426        F439   1.384       .  S
C428        C429   1.414       .  A
C428        C433   1.518       .  S
C429        H434   1.083       .  S
C429        C430   1.407       .  A
C430        C431   1.424       .  A
C431        C432   1.412       .  A
C431        C435   1.519       .  S
C432        H436   1.083       .  S
C433        F446   1.385       .  S
C433        F447   1.382       .  S
C433        F448   1.382       .  S
C435        F443   1.382       .  S
C435        F444   1.384       .  S
C435        F445   1.385       .  S
C449        H459   1.083       .  S
C449        C450   1.400       .  A
C449        C454   1.412       .  A
C450        C455   1.488       .  S
C450        C451   1.413   1_565  A
C451        C452   1.405   1_545  A
C451        C456   1.521       .  S
C452        H457   1.082   1_565  S
C452        C453   1.412       .  A
C453        C454   1.428       .  A
C454        C458   1.520       .  S
C455        C460   1.413       .  A
C455        C464   1.401       .  A
C456        F472   1.382       .  S
C456        F473   1.382       .  S
C456        F474   1.385       .  S
C458        F469   1.385       .  S
C458        F470   1.383       .  S
C458        F471   1.383       .  S
C460        C461   1.407       .  A
C460        C465   1.520       .  S
C461        H466   1.082       .  S
C461        C462   1.410       .  A
C462        C463   1.425       .  A
C463        C464   1.411       .  A
C463        C467   1.519       .  S
C464        H468   1.083       .  S
C465        F478   1.384       .  S
C465        F479   1.383       .  S
C465        F480   1.382       .  S
C467        F475   1.385       .  S
C467        F476   1.384       .  S
C467        F477   1.382   1_565  S
C481        H491   1.083       .  S
C481        C482   1.401       .  A
C481        C486   1.409       .  A
C482        C487   1.491       .  S
C482        C483   1.417       .  A
C483        C484   1.411       .  A
C483        C488   1.519       .  S
C484        H489   1.083       .  S
C484        C485   1.405       .  A
C485        C486   1.421       .  A
C486        C490   1.520       .  S
C487        C492   1.415   1_545  A
C487        C496   1.403       .  A
C488        F504   1.383       .  S
C488        F505   1.382   1_545  S
C488        F506   1.385       .  S
C490        F501   1.385       .  S
C490        F502   1.383       .  S
C490        F503   1.384       .  S
C492        C493   1.408       .  A
C492        C497   1.521       .  S
C493        H498   1.083       .  S
C493        C494   1.409   1_565  A
C494        C495   1.424       .  A
C495        C496   1.413       .  A
C495        C499   1.519       .  S
C496        H500   1.083       .  S
C497        F510   1.385       .  S
C497        F511   1.382       .  S
C497        F512   1.382       .  S
C499        F507   1.385       .  S
C499        F508   1.384       .  S
C499        F509   1.382       .  S
C513        H523   1.084       .  S
C513        C514   1.402       .  A
C513        C518   1.410       .  A
C514        C519   1.491       .  S
C514        C515   1.414       .  A
C515        C516   1.410       .  A
C515        C520   1.519       .  S
C516        H521   1.083       .  S
C516        C517   1.410       .  A
C517        C518   1.423       .  A
C518        C522   1.519       .  S
C519        C524   1.415       .  A
C519        C528   1.399       .  A
C520        F536   1.383       .  S
C520        F537   1.382       .  S
C520        F538   1.385       .  S
C522        F533   1.382   1_655  S
C522        F534   1.385   1_655  S
C522        F535   1.384       .  S
C524        C525   1.409       .  A
C524        C529   1.521   1_655  S
C525        H530   1.082   1_655  S
C525        C526   1.410       .  A
C526        C527   1.432       .  A
C527        C528   1.413       .  A
C527        C531   1.523       .  S
C528        H532   1.083       .  S
C529        F542   1.384       .  S
C529        F543   1.382       .  S
C529        F544   1.382   1_455  S
C531        F539   1.385       .  S
C531        F540   1.384       .  S
C531        F541   1.383       .  S
C545        H555   1.083   1_455  S
C545        C546   1.401       .  A
C545        C550   1.412       .  A
C546        C551   1.498       .  S
C546        C547   1.416       .  A
C547        C548   1.413       .  A
C547        C552   1.518       .  S
C548        H553   1.082       .  S
C548        C549   1.411       .  A
C549        C550   1.430       .  A
C550        C554   1.522   1_455  S
C551        C556   1.418       .  A
C551        C560   1.403       .  A
C552        F568   1.382       .  S
C552        F569   1.382       .  S
C552        F570   1.384       .  S
C554        F565   1.385       .  S
C554        F566   1.383       .  S
C554        F567   1.383       .  S
C556        C557   1.411       .  A
C556        C561   1.519       .  S
C557        H562   1.083       .  S
C557        C558   1.406       .  A
C558        C559   1.425       .  A
C559        C560   1.413       .  A
C559        C563   1.520       .  S
C560        H564   1.083       .  S
C561        F574   1.384       .  S
C561        F575   1.382       .  S
C561        F576   1.382       .  S
C563        F571   1.382   1_455  S
C563        F572   1.384       .  S
C563        F573   1.385   1_455  S
